CHEMBL2000089
  SciTegic01131515592D

 80 84  0  0  1  0            999 V2000
    0.8489   -5.0190    0.0000 O   0  0
    1.2579   -6.1472    0.0000 C   0  0
    0.2913   -7.2954    0.0000 C   0  0
   -1.1864   -7.0333    0.0000 C   0  0
   -2.1530   -8.1815    0.0000 C   0  0
   -3.6307   -7.9195    0.0000 C   0  0
   -4.5973   -9.0677    0.0000 C   0  0
   -6.0474   -8.7729    0.0000 C   0  0  2  0  0  0
   -6.0407  -10.2885    0.0000 N   0  0
   -4.7457  -11.0374    0.0000 C   0  0
   -3.7076  -10.4354    0.0000 O   0  0
   -4.7390  -12.5530    0.0000 C   0  0  1  0  0  0
   -3.6208  -13.5868    0.0000 C   0  0
   -4.2456  -14.9153    0.0000 C   0  0
   -5.6883  -14.7754    0.0000 C   0  0
   -6.0189  -13.2887    0.0000 N   0  0
   -7.3253  -12.5202    0.0000 C   0  0
   -7.3192  -11.3202    0.0000 O   0  0
   -8.6249  -13.2673    0.0000 C   0  0  2  0  0  0
   -9.9257  -13.9739    0.0000 C   0  0
  -10.0023  -15.4728    0.0000 C   0  0
   -8.7433  -16.2881    0.0000 C   0  0
   -8.8198  -17.7862    0.0000 C   0  0
  -10.1555  -18.4689    0.0000 C   0  0
  -11.4145  -17.6535    0.0000 C   0  0
  -11.3380  -16.1555    0.0000 C   0  0
   -9.9199  -12.5184    0.0000 N   0  0
   -9.9266  -11.0028    0.0000 C   0  0
  -10.9666  -10.4041    0.0000 O   0  0
   -8.6270  -10.2557    0.0000 C   0  0  2  0  0  0
   -7.3641   -9.4827    0.0000 C   0  0
   -7.3654   -7.9819    0.0000 C   0  0
   -6.0670   -7.2308    0.0000 C   0  0
   -6.0682   -5.7308    0.0000 C   0  0
   -7.3679   -4.9819    0.0000 C   0  0
   -8.6663   -5.7330    0.0000 C   0  0
   -8.6650   -7.2330    0.0000 C   0  0
   -8.6337   -8.7401    0.0000 N   0  0
   -7.3538   -8.0043    0.0000 C   0  0
   -7.3477   -6.8043    0.0000 O   0  0
    2.7356   -6.4092    0.0000 C   0  0  2  0  0  0
    2.9116   -5.0341    0.0000 C   0  0
    4.0599   -5.9992    0.0000 O   0  0
    1.2759   -7.4704    0.0000 H   0  0
    0.6322   -8.2355    0.0000 H   0  0
   -2.1710   -6.8583    0.0000 H   0  0
   -1.5273   -6.0932    0.0000 H   0  0
   -2.7966   -8.9469    0.0000 H   0  0
   -1.8121   -9.1216    0.0000 H   0  0
   -4.6153   -7.7445    0.0000 H   0  0
   -3.9716   -6.9794    0.0000 H   0  0
   -3.6127   -9.2427    0.0000 H   0  0
   -4.2564  -10.0078    0.0000 H   0  0
   -6.0696   -7.7731    0.0000 H   0  0
   -3.8237  -12.1502    0.0000 H   0  0
   -3.3096  -12.6365    0.0000 H   0  0
   -2.9754  -14.3507    0.0000 H   0  0
   -4.7649  -15.7699    0.0000 H   0  0
   -3.2456  -14.9057    0.0000 H   0  0
   -5.3568  -15.7188    0.0000 H   0  0
   -6.6652  -14.5614    0.0000 H   0  0
   -7.7475  -13.7470    0.0000 H   0  0
  -10.8161  -14.4292    0.0000 H   0  0
  -10.7653  -13.4306    0.0000 H   0  0
   -7.8529  -15.8330    0.0000 H   0  0
   -7.9805  -18.3297    0.0000 H   0  0
  -10.2065  -19.4676    0.0000 H   0  0
  -12.3050  -18.1087    0.0000 H   0  0
  -12.1773  -15.6119    0.0000 H   0  0
   -8.6499  -11.2554    0.0000 H   0  0
   -6.4986   -8.9819    0.0000 H   0  0
   -6.4975   -9.9817    0.0000 H   0  0
   -5.2005   -7.7301    0.0000 H   0  0
   -5.2026   -5.2301    0.0000 H   0  0
   -7.3688   -3.9819    0.0000 H   0  0
   -9.5328   -5.2338    0.0000 H   0  0
   -9.5306   -7.7338    0.0000 H   0  0
    3.0771   -7.3491    0.0000 H   0  0
    1.9250   -4.8707    0.0000 H   0  0
    3.5261   -4.2452    0.0000 H   0  0
  1  2  2  0
  2  3  1  0
  3  4  1  0
  4  5  1  0
  5  6  1  0
  6  7  1  0
  8  7  1  0
  8  9  1  0
  9 10  1  0
 10 11  2  0
 10 12  1  0
 12 13  1  0
 13 14  1  0
 14 15  1  0
 15 16  1  0
 12 16  1  0
 16 17  1  0
 17 18  2  0
 17 19  1  0
 19 20  1  0
 20 21  1  0
 21 22  2  0
 22 23  1  0
 23 24  2  0
 24 25  1  0
 25 26  2  0
 21 26  1  0
 19 27  1  0
 27 28  1  0
 28 29  2  0
 28 30  1  0
 30 31  1  0
 31 32  1  0
 32 33  2  0
 33 34  1  0
 34 35  2  0
 35 36  1  0
 36 37  2  0
 32 37  1  0
 30 38  1  0
 38 39  1  0
  8 39  1  0
 39 40  2  0
 41  2  1  0
 41 42  1  0
 42 43  1  0
 41 43  1  0
  3 44  1  0
  3 45  1  0
  4 46  1  0
  4 47  1  0
  5 48  1  0
  5 49  1  0
  6 50  1  0
  6 51  1  0
  7 52  1  0
  7 53  1  0
  8 54  1  1
 12 55  1  6
 13 56  1  0
 13 57  1  0
 14 58  1  0
 14 59  1  0
 15 60  1  0
 15 61  1  0
 19 62  1  1
 20 63  1  0
 20 64  1  0
 22 65  1  0
 23 66  1  0
 24 67  1  0
 25 68  1  0
 26 69  1  0
 30 70  1  6
 31 71  1  0
 31 72  1  0
 33 73  1  0
 34 74  1  0
 35 75  1  0
 36 76  1  0
 37 77  1  0
 41 78  1  1
 42 79  1  0
 42 80  1  0
M  END
> <Name>
CHEMBL2000089

> <ALogP>
2.467

> <Molecular_Weight>
588.69389

> <Num_H_Acceptors>
6

> <Num_H_Donors>
3

> <Num_RotatableBonds>
11

> <FormalCharge>
0

$$$$
CHEMBL99
  SciTegic01131515592D

 44 44  0  0  1  0            999 V2000
    1.2941   -3.7520    0.0000 C   0  0
    2.5951   -3.0039    0.0000 C   0  0  2  0  0  0
    3.8933   -3.7570    0.0000 C   0  0
    3.8912   -5.2578    0.0000 C   0  0
    2.5917   -6.0086    0.0000 C   0  0
    5.1894   -6.0109    0.0000 C   0  0
    5.1873   -7.5117    0.0000 C   0  0
    6.4855   -8.2648    0.0000 C   0  0
    7.5257   -7.6666    0.0000 O   0  0
    6.4833   -9.7656    0.0000 N   0  0
    7.7815  -10.5187    0.0000 O   0  0
    2.5973   -1.5031    0.0000 C   0  0
    3.6375   -0.9049    0.0000 O   0  0
    1.2990   -0.7500    0.0000 C   0  0
    1.2990    0.7500    0.0000 C   0  0
    0.0000    1.5000    0.0000 C   0  0
   -1.2990    0.7500    0.0000 C   0  0
   -1.2990   -0.7500    0.0000 C   0  0
    0.0000   -1.5000    0.0000 C   0  0
   -2.6003    1.4977    0.0000 N   0  0
   -3.8990    0.7455    0.0000 C   0  0
   -2.5999    2.9986    0.0000 C   0  0
    0.4287   -3.2511    0.0000 H   0  0
    1.2927   -4.7520    0.0000 H   0  0
    0.4275   -4.2509    0.0000 H   0  0
    2.5932   -4.0039    0.0000 H   0  0
    4.7602   -3.2585    0.0000 H   0  0
    2.5914   -7.0086    0.0000 H   0  0
    1.7256   -5.5086    0.0000 H   0  0
    1.7256   -6.5085    0.0000 H   0  0
    6.0563   -5.5124    0.0000 H   0  0
    4.3204   -8.0102    0.0000 H   0  0
    2.1651    1.2500    0.0000 H   0  0
    0.0000    2.5000    0.0000 H   0  0
   -2.1651   -1.2500    0.0000 H   0  0
    0.0000   -2.5000    0.0000 H   0  0
   -4.7661    1.2437    0.0000 H   0  0
   -4.7641    0.2438    0.0000 H   0  0
   -3.8973   -0.2545    0.0000 H   0  0
   -1.7340    3.4988    0.0000 H   0  0
   -2.6000    3.9986    0.0000 H   0  0
   -3.4659    3.4986    0.0000 H   0  0
    5.6164  -10.2641    0.0000 H   0  0
    7.7801  -11.5187    0.0000 H   0  0
  2  1  1  0
  2  3  1  0
  3  4  2  0
  4  5  1  0
  4  6  1  0
  6  7  2  0
  7  8  1  0
  8  9  2  0
  8 10  1  0
 10 11  1  0
  2 12  1  0
 12 13  2  0
 12 14  1  0
 14 15  2  0
 15 16  1  0
 16 17  2  0
 17 18  1  0
 18 19  2  0
 14 19  1  0
 17 20  1  0
 20 21  1  0
 20 22  1  0
  1 23  1  0
  1 24  1  0
  1 25  1  0
  2 26  1  6
  3 27  1  0
  5 28  1  0
  5 29  1  0
  5 30  1  0
  6 31  1  0
  7 32  1  0
 15 33  1  0
 16 34  1  0
 18 35  1  0
 19 36  1  0
 21 37  1  0
 21 38  1  0
 21 39  1  0
 22 40  1  0
 22 41  1  0
 22 42  1  0
 10 43  1  0
 11 44  1  0
M  END
> <Name>
CHEMBL99

> <ALogP>
2.772

> <Molecular_Weight>
302.36818

> <Num_H_Acceptors>
4

> <Num_H_Donors>
2

> <Num_RotatableBonds>
6

> <FormalCharge>
0

$$$$
CHEMBL2047701
  SciTegic01131515592D

 30 30  0  0  0  0            999 V2000
    4.9429    1.3482    0.0000 O   0  5
    3.9026    0.7500    0.0000 N   0  0
    3.8990   -0.7508    0.0000 C   0  0
    5.1957   -1.5066    0.0000 C   0  0
    6.4990   -0.7623    0.0000 C   0  0
    6.5061    0.7377    0.0000 C   0  0
    7.8087    1.4815    0.0000 C   0  0
    7.8144    2.6815    0.0000 Br  0  0
    9.1041    0.7253    0.0000 C   0  0
   10.4090    1.4669    0.0000 O   0  0
    9.0970   -0.7747    0.0000 C   0  0
   10.1334   -1.3796    0.0000 Br  0  0
    7.7944   -1.5185    0.0000 C   0  0
    2.5957   -1.4951    0.0000 C   0  0
    2.5904   -2.6950    0.0000 O   0  0
    1.2991   -0.7393    0.0000 N   0  0
   -0.0042   -1.4835    0.0000 C   0  0
   -1.3009   -0.7278    0.0000 C   0  0
   -2.6042   -1.4720    0.0000 S   0  0
    5.1912   -2.5066    0.0000 H   0  0
    4.3275   -2.0029    0.0000 H   0  0
    5.6425    1.2418    0.0000 H   0  0
    7.7897   -2.5185    0.0000 H   0  0
   -0.0087   -2.4835    0.0000 H   0  0
    0.8595   -1.9875    0.0000 H   0  0
   -1.2965    0.2722    0.0000 H   0  0
   -2.1646   -0.2238    0.0000 H   0  0
   11.2719    0.9615    0.0000 H   0  0
    1.3035    0.2607    0.0000 H   0  0
   -3.4681   -0.9685    0.0000 H   0  0
  1  2  1  0
  2  3  2  0
  3  4  1  0
  4  5  1  0
  5  6  2  0
  6  7  1  0
  7  8  1  0
  7  9  2  0
  9 10  1  0
  9 11  1  0
 11 12  1  0
 11 13  2  0
  5 13  1  0
  3 14  1  0
 14 15  2  0
 14 16  1  0
 16 17  1  0
 17 18  1  0
 18 19  1  0
  4 20  1  0
  4 21  1  0
  6 22  1  0
 13 23  1  0
 17 24  1  0
 17 25  1  0
 18 26  1  0
 18 27  1  0
 10 28  1  0
 16 29  1  0
 19 30  1  0
M  CHG  1   1  -1
M  END
> <Name>
CHEMBL2047701

> <ALogP>
1.999

> <Molecular_Weight>
411.08964

> <Num_H_Acceptors>
5

> <Num_H_Donors>
3

> <Num_RotatableBonds>
5

> <FormalCharge>
-1

$$$$
CHEMBL343448
  SciTegic01131515592D

 68 69  0  0  1  0            999 V2000
    6.8600   -0.2868    0.0000 C   0  0
    5.8760    0.8464    0.0000 C   0  0
    4.4000    0.5600    0.0000 C   0  0
    4.2200   -1.1700    0.0000 N   0  0
    2.7300   -2.3100    0.0000 C   0  0
    3.2143   -3.4079    0.0000 O   0  0
    1.0600   -2.6100    0.0000 C   0  0  1  0  0  0
    0.5100   -1.7100    0.0000 C   0  0
    1.1200   -0.8600    0.0000 S   0  0
    1.1200    0.1700    0.0000 S   0  0
    0.1700    0.8900    0.0000 C   0  0
   -0.7300    0.2000    0.0000 C   0  0
   -2.2400    0.4400    0.0000 C   0  0
   -2.2400    1.3600    0.0000 C   0  0
   -3.5000    1.7400    0.0000 C   0  0  2  0  0  0
   -4.3000    0.3600    0.0000 C   0  0
   -3.0600   -0.8000    0.0000 C   0  0
   -2.0801   -0.6004    0.0000 O   0  0
   -3.6400   -2.1100    0.0000 N   0  0
   -2.7700   -3.5200    0.0000 C   0  0  2  0  0  0
   -4.2260   -3.6695    0.0000 C   0  0
   -5.0496   -2.4148    0.0000 C   0  0
   -4.9012   -5.0098    0.0000 C   0  0
   -1.3000   -4.2000    0.0000 C   0  0
   -1.4707   -5.3878    0.0000 O   0  0
    0.3800   -3.9500    0.0000 N   0  0
   -3.5000    2.9300    0.0000 O   0  0
   -1.6300    3.7800    0.0000 C   0  0
   -1.8840    4.9528    0.0000 O   0  0
    0.9600    3.7800    0.0000 C   0  0  1  0  0  0
    1.8200    2.1800    0.0000 N   0  0
    3.3500    2.1800    0.0000 C   0  0
    3.9231    3.2343    0.0000 O   0  0
    2.3320    3.2215    0.0000 C   0  0
    2.5033    1.7305    0.0000 C   0  0
    3.5378    4.1149    0.0000 C   0  0
    7.8418   -0.0972    0.0000 H   0  0
    6.5336   -1.2321    0.0000 H   0  0
    7.5153   -1.0422    0.0000 H   0  0
    6.2023    1.7916    0.0000 H   0  0
    1.4698   -1.6978    0.0000 H   0  0
   -0.0060   -2.5666    0.0000 H   0  0
    0.0586   -0.8177    0.0000 H   0  0
   -0.7039    1.3761    0.0000 H   0  0
    1.0411    1.3811    0.0000 H   0  0
    0.2410   -0.0390    0.0000 H   0  0
   -1.4699   -0.4727    0.0000 H   0  0
   -3.0006   -0.2092    0.0000 H   0  0
   -1.4373    1.9563    0.0000 H   0  0
   -2.6973    2.3363    0.0000 H   0  0
   -4.9121    1.1508    0.0000 H   0  0
   -4.6574   -0.5739    0.0000 H   0  0
   -2.4119   -4.4537    0.0000 H   0  0
   -5.2244   -3.7266    0.0000 H   0  0
   -6.0480   -2.4714    0.0000 H   0  0
   -5.5979   -1.5785    0.0000 H   0  0
   -4.5996   -1.5217    0.0000 H   0  0
   -5.8996   -5.0673    0.0000 H   0  0
   -5.3507   -5.9031    0.0000 H   0  0
   -4.3525   -5.8458    0.0000 H   0  0
    0.4540    4.6425    0.0000 H   0  0
    3.2494    2.8235    0.0000 H   0  0
    3.4205    1.3320    0.0000 H   0  0
    2.6170    0.7370    0.0000 H   0  0
    1.6998    1.1352    0.0000 H   0  0
    4.4554    3.7174    0.0000 H   0  0
    4.3410    4.7107    0.0000 H   0  0
    3.4237    5.1084    0.0000 H   0  0
  1  2  1  0
  2  3  2  0
  3  4  1  0
  4  5  1  0
  5  6  2  0
  5  7  1  0
  7  8  1  0
  8  9  1  0
  9 10  1  0
 10 11  1  0
 11 12  1  0
 12 13  1  0
 13 14  2  0
 14 15  1  0
 15 16  1  0
 16 17  1  0
 17 18  2  0
 17 19  1  0
 19 20  1  0
 20 21  1  0
 21 22  1  0
 21 23  1  0
 20 24  1  0
 24 25  2  0
 24 26  1  0
  7 26  1  0
 15 27  1  0
 27 28  1  0
 28 29  2  0
 28 30  1  0
 30 31  1  0
 31 32  1  0
  3 32  1  0
 32 33  2  0
 30 34  1  0
 34 35  1  0
 34 36  1  0
  1 37  1  0
  1 38  1  0
  1 39  1  0
  2 40  1  0
  7 41  1  1
  8 42  1  0
  8 43  1  0
 11 44  1  0
 11 45  1  0
 12 46  1  0
 12 47  1  0
 13 48  1  0
 14 49  1  0
 15 50  1  1
 16 51  1  0
 16 52  1  0
 20 53  1  6
 21 54  1  0
 22 55  1  0
 22 56  1  0
 22 57  1  0
 23 58  1  0
 23 59  1  0
 23 60  1  0
 30 61  1  1
 34 62  1  0
 35 63  1  0
 35 64  1  0
 35 65  1  0
 36 66  1  0
 36 67  1  0
 36 68  1  0
M  END
> <Name>
CHEMBL343448

> <ALogP>
1.689

> <Molecular_Weight>
540.69583

> <Num_H_Acceptors>
8

> <Num_H_Donors>
4

> <Num_RotatableBonds>
2

> <FormalCharge>
0

$$$$
CHEMBL360194
  SciTegic01131515592D

 74 76  0  0  1  0            999 V2000
   -0.9141    1.6531    0.0000 C   0  0
   -2.1804    0.8858    0.0000 C   0  0
   -2.2210   -0.5947    0.0000 C   0  0
   -3.4978    0.1363    0.0000 N   0  0
   -3.4978   -1.3401    0.0000 C   0  0
   -4.3622   -1.8428    0.0000 O   0  0
   -2.1804   -2.0896    0.0000 C   0  0  2  0  0  0
   -3.1600   -3.1990    0.0000 C   0  0
   -2.7189   -4.6336    0.0000 C   0  0
   -3.7400   -5.7335    0.0000 C   0  0
   -3.2989   -7.1680    0.0000 C   0  0
   -4.3200   -8.2679    0.0000 C   0  0
   -3.8789   -9.7025    0.0000 C   0  0
   -2.7091   -9.9702    0.0000 O   0  0
   -4.9000  -10.8024    0.0000 N   0  0
   -4.4589  -12.2369    0.0000 O   0  0
   -0.8631   -1.3401    0.0000 N   0  0
    0.4315   -2.0896    0.0000 C   0  0
    0.4270   -3.2896    0.0000 O   0  0
    1.7489   -1.3401    0.0000 C   0  0  1  0  0  0
    3.2025   -1.7943    0.0000 C   0  0
    4.0429   -0.5905    0.0000 C   0  0
    3.2025    0.5905    0.0000 C   0  0
    1.7489    0.1363    0.0000 N   0  0
    0.4315    0.8858    0.0000 C   0  0
   -0.4329    0.3831    0.0000 O   0  0
    0.4315    2.3848    0.0000 C   0  0  2  0  0  0
    1.8825    2.0910    0.0000 C   0  0
    2.9039    3.1907    0.0000 C   0  0
    4.3661    2.8561    0.0000 C   0  0
    5.3869    3.9552    0.0000 C   0  0
    4.9455    5.3888    0.0000 C   0  0
    3.4833    5.7233    0.0000 C   0  0
    2.4625    4.6243    0.0000 C   0  0
   -0.8631    3.1344    0.0000 N   0  0
   -2.1804    2.3848    0.0000 C   0  0
   -3.2178    2.9881    0.0000 O   0  0
   -0.9106    2.6531    0.0000 H   0  0
   -0.0464    2.1502    0.0000 H   0  0
   -0.0497    1.1503    0.0000 H   0  0
   -1.3569   -1.0980    0.0000 H   0  0
   -2.2247   -1.5946    0.0000 H   0  0
   -3.0888   -1.0916    0.0000 H   0  0
   -1.3022   -2.5677    0.0000 H   0  0
   -4.1348   -2.9759    0.0000 H   0  0
   -3.8407   -3.9316    0.0000 H   0  0
   -1.7441   -4.8566    0.0000 H   0  0
   -2.0382   -3.9010    0.0000 H   0  0
   -4.7148   -5.5104    0.0000 H   0  0
   -4.0343   -4.7778    0.0000 H   0  0
   -2.3241   -7.3911    0.0000 H   0  0
   -2.6182   -6.4355    0.0000 H   0  0
   -5.2948   -8.0449    0.0000 H   0  0
   -5.0007   -9.0005    0.0000 H   0  0
    1.8559   -2.3343    0.0000 H   0  0
    2.5337   -2.5377    0.0000 H   0  0
    4.1864   -1.9732    0.0000 H   0  0
    4.5249    0.2856    0.0000 H   0  0
    4.5329   -1.4623    0.0000 H   0  0
    4.1857    0.7733    0.0000 H   0  0
    2.5302    1.3308    0.0000 H   0  0
    0.4076    3.3846    0.0000 H   0  0
    2.8573    1.8681    0.0000 H   0  0
    2.1771    1.1354    0.0000 H   0  0
    4.6604    1.9004    0.0000 H   0  0
    6.3617    3.7322    0.0000 H   0  0
    5.6261    6.1215    0.0000 H   0  0
    3.1890    6.6790    0.0000 H   0  0
    1.4877    4.8473    0.0000 H   0  0
   -4.3622    0.6390    0.0000 H   0  0
   -5.8748  -10.5793    0.0000 H   0  0
   -5.1393  -12.9698    0.0000 H   0  0
   -0.8593   -0.3401    0.0000 H   0  0
   -0.8593    4.1344    0.0000 H   0  0
  1  2  1  0
  2  3  1  0
  2  4  1  0
  4  5  1  0
  5  6  2  0
  5  7  1  0
  7  8  1  0
  8  9  1  0
  9 10  1  0
 10 11  1  0
 11 12  1  0
 12 13  1  0
 13 14  2  0
 13 15  1  0
 15 16  1  0
  7 17  1  0
 17 18  1  0
 18 19  2  0
 18 20  1  0
 20 21  1  0
 21 22  1  0
 22 23  1  0
 23 24  1  0
 20 24  1  0
 24 25  1  0
 25 26  2  0
 25 27  1  0
 27 28  1  0
 28 29  1  0
 29 30  2  0
 30 31  1  0
 31 32  2  0
 32 33  1  0
 33 34  2  0
 29 34  1  0
 27 35  1  0
 35 36  1  0
  2 36  1  0
 36 37  2  0
  1 38  1  0
  1 39  1  0
  1 40  1  0
  3 41  1  0
  3 42  1  0
  3 43  1  0
  7 44  1  6
  8 45  1  0
  8 46  1  0
  9 47  1  0
  9 48  1  0
 10 49  1  0
 10 50  1  0
 11 51  1  0
 11 52  1  0
 12 53  1  0
 12 54  1  0
 20 55  1  1
 21 56  1  0
 21 57  1  0
 22 58  1  0
 22 59  1  0
 23 60  1  0
 23 61  1  0
 27 62  1  6
 28 63  1  0
 28 64  1  0
 30 65  1  0
 31 66  1  0
 32 67  1  0
 33 68  1  0
 34 69  1  0
  4 70  1  0
 15 71  1  0
 16 72  1  0
 17 73  1  0
 35 74  1  0
M  END
> <Name>
CHEMBL360194

> <ALogP>
0.817

> <Molecular_Weight>
515.60188

> <Num_H_Acceptors>
6

> <Num_H_Donors>
5

> <Num_RotatableBonds>
8

> <FormalCharge>
0

$$$$
CHEMBL217083
  SciTegic01131515592D

 42 43  0  0  0  0            999 V2000
   -9.0898   12.0190    0.0000 O   0  0
   -9.0922   10.5182    0.0000 N   0  0
   -7.7941    9.7650    0.0000 C   0  0
   -6.7537   10.3630    0.0000 O   0  0
   -7.7964    8.2641    0.0000 C   0  0
   -6.4983    7.5109    0.0000 C   0  0
   -6.5006    6.0101    0.0000 C   0  0
   -5.2025    5.2568    0.0000 C   0  0
   -5.2049    3.7560    0.0000 C   0  0
   -3.9067    3.0027    0.0000 C   0  0
   -3.9091    1.5019    0.0000 O   0  0
   -2.6111    0.7486    0.0000 C   0  0
   -2.6111   -0.7486    0.0000 C   0  0
   -1.2964   -1.4973    0.0000 C   0  0
    0.0000   -0.7486    0.0000 C   0  0
    1.2964   -1.4973    0.0000 C   0  0
    2.5929   -0.7486    0.0000 C   0  0
    2.5929    0.7486    0.0000 C   0  0
    1.2964    1.4973    0.0000 C   0  0
    0.0000    0.7486    0.0000 C   0  0
   -1.2964    1.4973    0.0000 C   0  0
   -8.6616    8.7656    0.0000 H   0  0
   -8.6634    7.7658    0.0000 H   0  0
   -5.6331    7.0094    0.0000 H   0  0
   -5.6313    8.0093    0.0000 H   0  0
   -6.5027    5.0101    0.0000 H   0  0
   -7.3676    5.5117    0.0000 H   0  0
   -4.3373    4.7553    0.0000 H   0  0
   -4.3356    5.7552    0.0000 H   0  0
   -5.2069    2.7560    0.0000 H   0  0
   -6.0718    3.2576    0.0000 H   0  0
   -3.0416    2.5013    0.0000 H   0  0
   -3.0398    3.5011    0.0000 H   0  0
   -3.4756   -1.2512    0.0000 H   0  0
   -1.2934   -2.4973    0.0000 H   0  0
    1.2964   -2.4973    0.0000 H   0  0
    3.4589   -1.2486    0.0000 H   0  0
    3.4589    1.2486    0.0000 H   0  0
    1.2964    2.4973    0.0000 H   0  0
   -1.2934    2.4973    0.0000 H   0  0
   -9.9548   12.5209    0.0000 H   0  0
   -9.9591   10.0198    0.0000 H   0  0
  1  2  1  0
  2  3  1  0
  3  4  2  0
  3  5  1  0
  5  6  1  0
  6  7  1  0
  7  8  1  0
  8  9  1  0
  9 10  1  0
 10 11  1  0
 11 12  1  0
 12 13  2  0
 13 14  1  0
 14 15  2  0
 15 16  1  0
 16 17  2  0
 17 18  1  0
 18 19  2  0
 19 20  1  0
 15 20  1  0
 20 21  2  0
 12 21  1  0
  5 22  1  0
  5 23  1  0
  6 24  1  0
  6 25  1  0
  7 26  1  0
  7 27  1  0
  8 28  1  0
  8 29  1  0
  9 30  1  0
  9 31  1  0
 10 32  1  0
 10 33  1  0
 13 34  1  0
 14 35  1  0
 16 36  1  0
 17 37  1  0
 18 38  1  0
 19 39  1  0
 21 40  1  0
  1 41  1  0
  2 42  1  0
M  END
> <Name>
CHEMBL217083

> <ALogP>
3.526

> <Molecular_Weight>
287.35354

> <Num_H_Acceptors>
3

> <Num_H_Donors>
2

> <Num_RotatableBonds>
8

> <FormalCharge>
0

$$$$
CHEMBL1835659
  SciTegic01131515592D

 69 70  0  0  1  0            999 V2000
    2.7153    6.4646    0.0000 C   0  0
    2.0109    5.1393    0.0000 C   0  0
    2.8056    3.8662    0.0000 C   0  0  2  0  0  0
    4.1971    4.4281    0.0000 C   0  0
    2.6807    2.4138    0.0000 C   0  0  1  0  0  0
    1.4672    3.2954    0.0000 N   0  0
    0.0000    3.6073    0.0000 C   0  0
    0.0000    4.8073    0.0000 O   0  0
   -1.4672    3.2954    0.0000 C   0  0  1  0  0  0
    0.0000    3.6073    0.0000 C   0  0
    1.4672    3.2954    0.0000 S   0  0
    2.6807    2.4138    0.0000 S   0  0
    3.4307    1.1147    0.0000 C   0  0
    3.5875   -0.3771    0.0000 C   0  0
    3.1240   -1.8036    0.0000 C   0  0
    2.1203   -2.9184    0.0000 C   0  0
    0.7500   -3.5285    0.0000 C   0  0  2  0  0  0
   -0.7500   -3.5285    0.0000 C   0  0
   -2.1203   -2.9184    0.0000 C   0  0
   -2.8256   -3.8892    0.0000 O   0  0
   -3.1240   -1.8037    0.0000 N   0  0
   -3.5875   -0.3771    0.0000 C   0  0  2  0  0  0
   -4.1079   -1.7388    0.0000 C   0  0
   -5.5748   -2.0561    0.0000 C   0  0
   -6.0344   -3.4848    0.0000 S   0  3
   -7.5013   -3.8020    0.0000 C   0  0
   -5.2286   -4.3740    0.0000 O   0  5
   -3.4308    1.1147    0.0000 C   0  0
   -4.5720    1.4855    0.0000 O   0  0
   -2.6808    2.4137    0.0000 N   0  0
    2.1203   -2.9184    0.0000 O   0  0
    3.1240   -1.8036    0.0000 C   0  0
    4.1633   -2.4036    0.0000 O   0  0
    3.5875   -0.3771    0.0000 C   0  0
    3.4307    1.1147    0.0000 C   0  0  2  0  0  0
    3.6179    2.3000    0.0000 O   0  0
    2.1858    7.3129    0.0000 H   0  0
    3.1850    7.3474    0.0000 H   0  0
    3.7147    6.4993    0.0000 H   0  0
    1.5411    4.2565    0.0000 H   0  0
    1.0115    5.1046    0.0000 H   0  0
    3.5936    3.2505    0.0000 H   0  0
    4.3371    5.4183    0.0000 H   0  0
    4.9849    3.8121    0.0000 H   0  0
    5.1246    4.8021    0.0000 H   0  0
    1.9026    1.7856    0.0000 H   0  0
   -0.4891    3.5033    0.0000 H   0  0
   -0.8912    4.0608    0.0000 H   0  0
    0.8912    4.0609    0.0000 H   0  0
    4.1375    0.4073    0.0000 H   0  0
    2.4973    0.7559    0.0000 H   0  0
    2.5889   -0.3252    0.0000 H   0  0
    3.9454   -1.3108    0.0000 H   0  0
    3.9901   -2.3036    0.0000 H   0  0
    2.7081   -3.7274    0.0000 H   0  0
   -0.0590   -2.9407    0.0000 H   0  0
    0.0275   -4.1574    0.0000 H   0  0
   -1.7160   -3.7868    0.0000 H   0  0
   -4.1309    0.4624    0.0000 H   0  0
   -3.4363   -2.4798    0.0000 H   0  0
   -4.4137   -2.6909    0.0000 H   0  0
   -6.2463   -1.3151    0.0000 H   0  0
   -6.5523   -2.2670    0.0000 H   0  0
   -7.8075   -4.7540    0.0000 H   0  0
   -8.1728   -3.0611    0.0000 H   0  0
   -8.4788   -4.0130    0.0000 H   0  0
    4.1317    0.4619    0.0000 H   0  0
    3.9455   -1.3108    0.0000 H   0  0
    4.1375    0.4073    0.0000 H   0  0
  1  2  1  0
  2  3  1  0
  3  4  1  0
  5  3  1  0
  5  6  1  0
  6  7  1  0
  7  8  2  0
  7  9  1  0
  9 10  1  0
 10 11  1  0
 11 12  1  0
 12 13  1  0
 13 14  1  0
 14 15  1  0
 15 16  2  0
 16 17  1  0
 17 18  1  0
 18 19  1  0
 19 20  2  0
 19 21  1  0
 21 22  1  0
 22 23  1  0
 23 24  1  0
 24 25  1  0
 25 26  1  0
 25 27  1  0
 22 28  1  0
 28 29  2  0
 28 30  1  0
  9 30  1  0
 17 31  1  0
 31 32  1  0
 32 33  2  0
 32 34  1  0
 34 35  1  0
  5 35  1  0
 35 36  1  0
  1 37  1  0
  1 38  1  0
  1 39  1  0
  2 40  1  0
  2 41  1  0
  3 42  1  1
  4 43  1  0
  4 44  1  0
  4 45  1  0
  5 46  1  1
  9 47  1  1
 10 48  1  0
 10 49  1  0
 13 50  1  0
 13 51  1  0
 14 52  1  0
 14 53  1  0
 15 54  1  0
 16 55  1  0
 17 56  1  1
 18 57  1  0
 18 58  1  0
 22 59  1  1
 23 60  1  0
 23 61  1  0
 24 62  1  0
 24 63  1  0
 26 64  1  0
 26 65  1  0
 26 66  1  0
 34 67  1  0
 34 68  1  0
 35 69  1  6
M  CHG  2  25   1  27  -1
M  END
> <Name>
CHEMBL1835659

> <ALogP>
0.542

> <Molecular_Weight>
563.75077

> <Num_H_Acceptors>
9

> <Num_H_Donors>
4

> <Num_RotatableBonds>
5

> <FormalCharge>
0

$$$$
CHEMBL327146
  SciTegic01131515592D

 63 66  0  0  0  0            999 V2000
  -15.6048    3.7932    0.0000 O   0  0
  -14.3075    3.0386    0.0000 N   0  0
  -13.0048    3.7839    0.0000 C   0  0
  -13.0005    4.9839    0.0000 O   0  0
  -11.7075    3.0292    0.0000 C   0  0
  -10.4048    3.7746    0.0000 C   0  0
   -9.1076    3.0199    0.0000 C   0  0
   -7.8049    3.7653    0.0000 C   0  0
   -6.5076    3.0106    0.0000 C   0  0
   -5.2049    3.7559    0.0000 C   0  0
   -3.9067    3.0027    0.0000 C   0  0
   -2.8664    3.6008    0.0000 O   0  0
   -3.9091    1.5019    0.0000 N   0  0
   -2.6111    0.7486    0.0000 C   0  0
   -2.6111   -0.7486    0.0000 C   0  0
   -1.2964   -1.4973    0.0000 C   0  0
    0.0000   -0.7486    0.0000 C   0  0
    1.2964   -1.4973    0.0000 N   0  0
    2.5929   -0.7486    0.0000 C   0  0
    2.5929    0.7486    0.0000 C   0  0
    1.2964    1.4973    0.0000 C   0  0
    0.0000    0.7486    0.0000 C   0  0
   -1.2964    1.4973    0.0000 C   0  0
   -5.2025    5.2568    0.0000 C   0  0
   -4.1622    5.8548    0.0000 O   0  0
   -6.5006    6.0101    0.0000 N   0  0
   -6.4983    7.5109    0.0000 C   0  0
   -7.7923    8.2646    0.0000 C   0  0
   -7.7763    9.7774    0.0000 C   0  0
   -6.4762   10.5198    0.0000 C   0  0
   -6.4693   12.0168    0.0000 N   0  0
   -5.1693   12.7592    0.0000 C   0  0
   -3.8761   12.0045    0.0000 C   0  0
   -3.8830   10.5074    0.0000 C   0  0
   -5.1830    9.7651    0.0000 C   0  0
   -5.1899    8.2680    0.0000 C   0  0
  -11.7111    2.0293    0.0000 H   0  0
  -12.5753    2.5322    0.0000 H   0  0
  -10.4013    4.7746    0.0000 H   0  0
   -9.5371    4.2716    0.0000 H   0  0
   -9.1111    2.0199    0.0000 H   0  0
   -8.2434    2.5167    0.0000 H   0  0
   -7.8013    4.7652    0.0000 H   0  0
   -6.9371    4.2623    0.0000 H   0  0
   -6.5112    2.0106    0.0000 H   0  0
   -5.6434    2.5074    0.0000 H   0  0
   -4.3380    4.2543    0.0000 H   0  0
   -3.4756   -1.2512    0.0000 H   0  0
   -1.2934   -2.4973    0.0000 H   0  0
    3.4589   -1.2486    0.0000 H   0  0
    3.4589    1.2486    0.0000 H   0  0
    1.2964    2.4973    0.0000 H   0  0
   -1.2934    2.4973    0.0000 H   0  0
   -8.6619    7.7709    0.0000 H   0  0
   -8.6384   10.2841    0.0000 H   0  0
   -5.1646   13.7592    0.0000 H   0  0
   -3.0078   12.5004    0.0000 H   0  0
   -3.0193   10.0034    0.0000 H   0  0
   -4.3248    7.7665    0.0000 H   0  0
  -16.4727    3.2966    0.0000 H   0  0
  -14.3111    2.0386    0.0000 H   0  0
   -4.7760    1.0035    0.0000 H   0  0
   -7.3676    5.5117    0.0000 H   0  0
  1  2  1  0
  2  3  1  0
  3  4  2  0
  3  5  1  0
  5  6  1  0
  6  7  1  0
  7  8  1  0
  8  9  1  0
  9 10  1  0
 10 11  1  0
 11 12  2  0
 11 13  1  0
 13 14  1  0
 14 15  2  0
 15 16  1  0
 16 17  2  0
 17 18  1  0
 18 19  2  0
 19 20  1  0
 20 21  2  0
 21 22  1  0
 17 22  1  0
 22 23  2  0
 14 23  1  0
 10 24  1  0
 24 25  2  0
 24 26  1  0
 26 27  1  0
 27 28  2  0
 28 29  1  0
 29 30  2  0
 30 31  1  0
 31 32  2  0
 32 33  1  0
 33 34  2  0
 34 35  1  0
 30 35  1  0
 35 36  2  0
 27 36  1  0
  5 37  1  0
  5 38  1  0
  6 39  1  0
  6 40  1  0
  7 41  1  0
  7 42  1  0
  8 43  1  0
  8 44  1  0
  9 45  1  0
  9 46  1  0
 10 47  1  0
 15 48  1  0
 16 49  1  0
 19 50  1  0
 20 51  1  0
 21 52  1  0
 23 53  1  0
 28 54  1  0
 29 55  1  0
 32 56  1  0
 33 57  1  0
 34 58  1  0
 36 59  1  0
  1 60  1  0
  2 61  1  0
 13 62  1  0
 26 63  1  0
M  END
> <Name>
CHEMBL327146

> <ALogP>
3.139

> <Molecular_Weight>
485.53438

> <Num_H_Acceptors>
6

> <Num_H_Donors>
4

> <Num_RotatableBonds>
10

> <FormalCharge>
0

$$$$
CHEMBL2047699
  SciTegic01131515592D

 31 31  0  0  0  0            999 V2000
    4.9429    1.3482    0.0000 O   0  5
    3.9026    0.7500    0.0000 N   0  0
    3.8990   -0.7508    0.0000 C   0  0
    5.1957   -1.5066    0.0000 C   0  0
    6.4990   -0.7623    0.0000 C   0  0
    6.5061    0.7377    0.0000 C   0  0
    7.8087    1.4815    0.0000 C   0  0
    9.1041    0.7253    0.0000 C   0  0
    9.0970   -0.7747    0.0000 C   0  0
    7.7944   -1.5185    0.0000 C   0  0
   10.3916   -1.5339    0.0000 N   0  3
   10.3842   -2.7339    0.0000 O   0  0
   11.4347   -0.9407    0.0000 O   0  5
    2.5957   -1.4951    0.0000 C   0  0
    2.5904   -2.6950    0.0000 O   0  0
    1.2991   -0.7393    0.0000 N   0  0
   -0.0042   -1.4835    0.0000 C   0  0
   -1.3009   -0.7278    0.0000 C   0  0
   -2.6042   -1.4720    0.0000 S   0  0
    5.1912   -2.5066    0.0000 H   0  0
    4.3275   -2.0029    0.0000 H   0  0
    5.6425    1.2418    0.0000 H   0  0
    7.8134    2.4815    0.0000 H   0  0
    9.9725    1.2212    0.0000 H   0  0
    7.7897   -2.5185    0.0000 H   0  0
   -0.0087   -2.4835    0.0000 H   0  0
    0.8595   -1.9875    0.0000 H   0  0
   -1.2965    0.2722    0.0000 H   0  0
   -2.1646   -0.2238    0.0000 H   0  0
    1.3035    0.2607    0.0000 H   0  0
   -3.4681   -0.9685    0.0000 H   0  0
  1  2  1  0
  2  3  2  0
  3  4  1  0
  4  5  1  0
  5  6  2  0
  6  7  1  0
  7  8  2  0
  8  9  1  0
  9 10  2  0
  5 10  1  0
  9 11  1  0
 11 12  2  0
 11 13  1  0
  3 14  1  0
 14 15  2  0
 14 16  1  0
 16 17  1  0
 17 18  1  0
 18 19  1  0
  4 20  1  0
  4 21  1  0
  6 22  1  0
  7 23  1  0
  8 24  1  0
 10 25  1  0
 17 26  1  0
 17 27  1  0
 18 28  1  0
 18 29  1  0
 16 30  1  0
 19 31  1  0
M  CHG  3   1  -1  11   1  13  -1
M  END
> <Name>
CHEMBL2047699

> <ALogP>
0.639

> <Molecular_Weight>
282.29568

> <Num_H_Acceptors>
6

> <Num_H_Donors>
2

> <Num_RotatableBonds>
6

> <FormalCharge>
-1

$$$$
CHEMBL116620
  SciTegic01131515592D

 52 54  0  0  0  0            999 V2000
    5.1894   -6.0109    0.0000 O   0  0
    3.8912   -5.2578    0.0000 N   0  0
    3.8933   -3.7570    0.0000 C   0  0
    4.9336   -3.1588    0.0000 O   0  0
    2.5951   -3.0039    0.0000 C   0  0
    2.5973   -1.5031    0.0000 C   0  0
    1.2990   -0.7500    0.0000 C   0  0
    1.2990    0.7500    0.0000 C   0  0
    0.0000    1.5000    0.0000 C   0  0
   -1.2990    0.7500    0.0000 C   0  0
   -1.2990   -0.7500    0.0000 C   0  0
    0.0000   -1.5000    0.0000 C   0  0
   -2.5987   -1.5004    0.0000 C   0  0
   -3.8982   -0.7496    0.0000 C   0  0
   -4.9375   -1.3496    0.0000 O   0  0
   -3.8987    0.7513    0.0000 N   0  0
   -5.1982    1.5021    0.0000 C   0  0
   -5.2009    3.0021    0.0000 C   0  0
   -6.5012    3.7499    0.0000 C   0  0
   -7.7990    2.9976    0.0000 C   0  0
   -7.7964    1.4976    0.0000 C   0  0
   -6.4961    0.7499    0.0000 C   0  0
   -2.5982   -3.0012    0.0000 C   0  0
   -3.6375   -3.6012    0.0000 O   0  0
   -1.2987   -3.7520    0.0000 N   0  0
   -1.2982   -5.2529    0.0000 C   0  0
   -0.0005   -6.0052    0.0000 C   0  0
   -0.0031   -7.5052    0.0000 C   0  0
   -1.3034   -8.2529    0.0000 C   0  0
   -2.6012   -7.5007    0.0000 C   0  0
   -2.5986   -6.0007    0.0000 C   0  0
    1.7282   -3.5024    0.0000 H   0  0
    3.4642   -1.0046    0.0000 H   0  0
    2.1651    1.2500    0.0000 H   0  0
    0.0000    2.5000    0.0000 H   0  0
   -2.1651    1.2500    0.0000 H   0  0
    0.0000   -2.5000    0.0000 H   0  0
   -3.4647   -2.0004    0.0000 H   0  0
   -4.3358    3.5036    0.0000 H   0  0
   -6.5030    4.7499    0.0000 H   0  0
   -8.6659    3.4961    0.0000 H   0  0
   -8.6616    0.9961    0.0000 H   0  0
   -6.4944   -0.2501    0.0000 H   0  0
    0.8664   -5.5067    0.0000 H   0  0
    0.8621   -8.0067    0.0000 H   0  0
   -1.3051   -9.2529    0.0000 H   0  0
   -3.4680   -7.9992    0.0000 H   0  0
   -3.4638   -5.4993    0.0000 H   0  0
    5.1880   -7.0109    0.0000 H   0  0
    3.0243   -5.7563    0.0000 H   0  0
   -3.0327    1.2513    0.0000 H   0  0
   -0.4327   -3.2520    0.0000 H   0  0
  1  2  1  0
  2  3  1  0
  3  4  2  0
  3  5  1  0
  5  6  2  0
  6  7  1  0
  7  8  2  0
  8  9  1  0
  9 10  2  0
 10 11  1  0
 11 12  2  0
  7 12  1  0
 11 13  1  0
 13 14  1  0
 14 15  2  0
 14 16  1  0
 16 17  1  0
 17 18  2  0
 18 19  1  0
 19 20  2  0
 20 21  1  0
 21 22  2  0
 17 22  1  0
 13 23  1  0
 23 24  2  0
 23 25  1  0
 25 26  1  0
 26 27  2  0
 27 28  1  0
 28 29  2  0
 29 30  1  0
 30 31  2  0
 26 31  1  0
  5 32  1  0
  6 33  1  0
  8 34  1  0
  9 35  1  0
 10 36  1  0
 12 37  1  0
 13 38  1  0
 18 39  1  0
 19 40  1  0
 20 41  1  0
 21 42  1  0
 22 43  1  0
 27 44  1  0
 28 45  1  0
 29 46  1  0
 30 47  1  0
 31 48  1  0
  1 49  1  0
  2 50  1  0
 16 51  1  0
 25 52  1  0
M  END
> <Name>
CHEMBL116620

> <ALogP>
2.893

> <Molecular_Weight>
415.44124

> <Num_H_Acceptors>
4

> <Num_H_Donors>
4

> <Num_RotatableBonds>
7

> <FormalCharge>
0

$$$$
CHEMBL1819274
  SciTegic01131515592D

 60 62  0  0  0  0            999 V2000
    4.8236    1.3429    0.0000 C   0  0
    4.0872    0.0351    0.0000 C   0  0
    2.5889    0.0182    0.0000 C   0  0
    1.7138    1.2033    0.0000 N   0  0
    0.2917    0.7475    0.0000 N   0  0
   -1.0028    1.5132    0.0000 C   0  0
   -2.3155    0.7475    0.0000 C   0  0
   -2.3155   -0.7475    0.0000 C   0  0
   -1.0028   -1.5132    0.0000 C   0  0
    0.2917   -0.7475    0.0000 C   0  0
    1.7138   -1.2033    0.0000 C   0  0
    2.1825   -2.6263    0.0000 C   0  0
    1.1835   -3.7463    0.0000 C   0  0
    1.6530   -5.1718    0.0000 N   0  3
    0.6540   -6.2918    0.0000 C   0  0
   -0.8157   -5.9875    0.0000 C   0  0
   -1.8135   -7.1075    0.0000 C   0  0
   -3.2823   -6.8034    0.0000 C   0  0
   -3.7534   -5.3793    0.0000 C   0  0
   -5.2224   -5.0720    0.0000 C   0  0
   -5.6917   -3.6464    0.0000 C   0  0
   -7.1607   -3.3391    0.0000 C   0  0
   -7.9605   -4.2337    0.0000 O   0  0
   -7.6300   -1.9136    0.0000 N   0  0
   -9.0991   -1.6062    0.0000 O   0  0
   -2.7556   -4.2593    0.0000 C   0  0
   -1.2868   -4.5634    0.0000 C   0  0
    3.1223   -5.4775    0.0000 C   0  0
    3.5939   -6.9024    0.0000 C   0  0
    4.1199   -4.3562    0.0000 C   0  0
    5.8235    1.3543    0.0000 H   0  0
    4.3140    2.2033    0.0000 H   0  0
    5.3138    2.2145    0.0000 H   0  0
    4.5968   -0.8253    0.0000 H   0  0
    3.5970   -0.8365    0.0000 H   0  0
   -0.9997    2.5132    0.0000 H   0  0
   -3.1826    1.2456    0.0000 H   0  0
   -3.1826   -1.2456    0.0000 H   0  0
   -0.9997   -2.5132    0.0000 H   0  0
    2.8486   -1.8804    0.0000 H   0  0
    3.1616   -2.8300    0.0000 H   0  0
    0.5175   -4.4922    0.0000 H   0  0
    0.2045   -3.5426    0.0000 H   0  0
    1.6331   -6.4950    0.0000 H   0  0
    0.9677   -7.2413    0.0000 H   0  0
   -1.4995   -8.0569    0.0000 H   0  0
   -3.9475   -7.5501    0.0000 H   0  0
   -5.8889   -5.8175    0.0000 H   0  0
   -5.0252   -2.9009    0.0000 H   0  0
   -3.0696   -3.3099    0.0000 H   0  0
   -0.6216   -3.8167    0.0000 H   0  0
    2.4568   -6.2239    0.0000 H   0  0
    2.9292   -7.6495    0.0000 H   0  0
    3.9085   -7.8516    0.0000 H   0  0
    4.5732   -7.1047    0.0000 H   0  0
    3.8058   -3.4068    0.0000 H   0  0
    4.7850   -3.6093    0.0000 H   0  0
    5.0993   -4.5585    0.0000 H   0  0
   -6.9635   -1.1680    0.0000 H   0  0
   -9.4117   -0.6564    0.0000 H   0  0
  1  2  1  0
  2  3  1  0
  3  4  2  0
  4  5  1  0
  5  6  1  0
  6  7  2  0
  7  8  1  0
  8  9  2  0
  9 10  1  0
  5 10  1  0
 10 11  2  0
  3 11  1  0
 11 12  1  0
 12 13  1  0
 13 14  1  0
 14 15  1  0
 15 16  1  0
 16 17  2  0
 17 18  1  0
 18 19  2  0
 19 20  1  0
 20 21  2  0
 21 22  1  0
 22 23  2  0
 22 24  1  0
 24 25  1  0
 19 26  1  0
 26 27  2  0
 16 27  1  0
 14 28  1  0
 28 29  1  0
 28 30  1  0
  1 31  1  0
  1 32  1  0
  1 33  1  0
  2 34  1  0
  2 35  1  0
  6 36  1  0
  7 37  1  0
  8 38  1  0
  9 39  1  0
 12 40  1  0
 12 41  1  0
 13 42  1  0
 13 43  1  0
 15 44  1  0
 15 45  1  0
 17 46  1  0
 18 47  1  0
 20 48  1  0
 21 49  1  0
 26 50  1  0
 27 51  1  0
 28 52  1  0
 29 53  1  0
 29 54  1  0
 29 55  1  0
 30 56  1  0
 30 57  1  0
 30 58  1  0
 24 59  1  0
 25 60  1  0
M  CHG  1  14   1
M  END
> <Name>
CHEMBL1819274

> <ALogP>
2.634

> <Molecular_Weight>
407.52854

> <Num_H_Acceptors>
3

> <Num_H_Donors>
3

> <Num_RotatableBonds>
9

> <FormalCharge>
1

$$$$
CHEMBL1094708
  SciTegic01131515592D

 57 59  0  0  0  0            999 V2000
    2.5973   -1.5031    0.0000 N   0  0
    1.2990   -0.7500    0.0000 C   0  0
    1.2990    0.7500    0.0000 C   0  0
    0.0000    1.5000    0.0000 C   0  0
   -1.2990    0.7500    0.0000 C   0  0
   -1.2990   -0.7500    0.0000 C   0  0
    0.0000   -1.5000    0.0000 C   0  0
   -2.5987    1.5004    0.0000 N   0  0
   -2.7390    2.9810    0.0000 C   0  0
   -4.2067    3.2905    0.0000 C   0  0
   -4.9546    1.9903    0.0000 N   0  0
   -3.9492    0.8772    0.0000 N   0  0
   -4.8193    4.6606    0.0000 C   0  0
   -4.0353    5.9336    0.0000 C   0  0
   -4.7489    7.2530    0.0000 C   0  0
   -6.2483    7.2947    0.0000 C   0  0
   -7.0341    6.0170    0.0000 C   0  0
   -8.5345    6.0556    0.0000 N   0  0
   -9.3189    4.7761    0.0000 C   0  0
   -8.7462    3.7216    0.0000 O   0  0
  -10.8192    4.8148    0.0000 C   0  0
  -11.6037    3.5353    0.0000 C   0  0
  -13.1040    3.5739    0.0000 C   0  0
  -13.8885    2.2944    0.0000 C   0  0
  -15.3888    2.3331    0.0000 C   0  0
  -16.1732    1.0536    0.0000 C   0  0
  -17.6736    1.0922    0.0000 C   0  0
  -18.2463    2.1467    0.0000 O   0  0
  -18.4580   -0.1873    0.0000 N   0  0
  -19.9583   -0.1486    0.0000 O   0  0
   -6.3205    4.6976    0.0000 C   0  0
    2.1651    1.2500    0.0000 H   0  0
    0.0000    2.5000    0.0000 H   0  0
   -2.1651   -1.2500    0.0000 H   0  0
    0.0000   -2.5000    0.0000 H   0  0
   -1.9929    3.6469    0.0000 H   0  0
   -3.0357    5.9055    0.0000 H   0  0
   -4.2250    8.1047    0.0000 H   0  0
   -6.7240    8.1743    0.0000 H   0  0
  -11.2965    5.6935    0.0000 H   0  0
  -10.2970    5.6676    0.0000 H   0  0
  -11.1264    2.6565    0.0000 H   0  0
  -10.6040    3.5091    0.0000 H   0  0
  -13.5813    4.4527    0.0000 H   0  0
  -12.5817    4.4267    0.0000 H   0  0
  -13.4112    1.4157    0.0000 H   0  0
  -12.8888    2.2682    0.0000 H   0  0
  -15.8660    3.2118    0.0000 H   0  0
  -14.8665    3.1859    0.0000 H   0  0
  -15.6960    0.1748    0.0000 H   0  0
  -16.6955    0.2008    0.0000 H   0  0
   -6.8431    3.8450    0.0000 H   0  0
    2.5958   -2.5031    0.0000 H   0  0
    3.4642   -1.0046    0.0000 H   0  0
   -9.0117    6.9344    0.0000 H   0  0
  -17.9808   -1.0660    0.0000 H   0  0
  -20.4810   -1.0012    0.0000 H   0  0
  1  2  1  0
  2  3  2  0
  3  4  1  0
  4  5  2  0
  5  6  1  0
  6  7  2  0
  2  7  1  0
  5  8  1  0
  8  9  1  0
  9 10  2  0
 10 11  1  0
 11 12  2  0
  8 12  1  0
 10 13  1  0
 13 14  2  0
 14 15  1  0
 15 16  2  0
 16 17  1  0
 17 18  1  0
 18 19  1  0
 19 20  2  0
 19 21  1  0
 21 22  1  0
 22 23  1  0
 23 24  1  0
 24 25  1  0
 25 26  1  0
 26 27  1  0
 27 28  2  0
 27 29  1  0
 29 30  1  0
 17 31  2  0
 13 31  1  0
  3 32  1  0
  4 33  1  0
  6 34  1  0
  7 35  1  0
  9 36  1  0
 14 37  1  0
 15 38  1  0
 16 39  1  0
 21 40  1  0
 21 41  1  0
 22 42  1  0
 22 43  1  0
 23 44  1  0
 23 45  1  0
 24 46  1  0
 24 47  1  0
 25 48  1  0
 25 49  1  0
 26 50  1  0
 26 51  1  0
 31 52  1  0
  1 53  1  0
  1 54  1  0
 18 55  1  0
 29 56  1  0
 30 57  1  0
M  END
> <Name>
CHEMBL1094708

> <ALogP>
2.965

> <Molecular_Weight>
422.48024

> <Num_H_Acceptors>
6

> <Num_H_Donors>
4

> <Num_RotatableBonds>
10

> <FormalCharge>
0

$$$$
CHEMBL1819257
  SciTegic01131515592D

 60 63  0  0  0  0            999 V2000
    4.5057    3.9790    0.0000 C   0  0
    3.8693    2.6198    0.0000 O   0  0
    4.7275    1.3885    0.0000 C   0  0
    6.2225    1.5110    0.0000 C   0  0
    7.0761    0.2776    0.0000 C   0  0
    6.4347   -1.0784    0.0000 N   0  0
    4.9397   -1.2009    0.0000 C   0  0
    4.0896    0.0290    0.0000 C   0  0
    2.5889    0.0182    0.0000 C   0  0
    1.7138    1.2033    0.0000 N   0  0
    0.2917    0.7475    0.0000 C   0  0
   -1.0028    1.5132    0.0000 C   0  0
   -2.3155    0.7475    0.0000 C   0  0
   -2.3155   -0.7475    0.0000 C   0  0
   -1.0028   -1.5132    0.0000 C   0  0
    0.2917   -0.7475    0.0000 C   0  0
    1.7138   -1.2033    0.0000 C   0  0
    2.1825   -2.6263    0.0000 C   0  0
    1.1835   -3.7463    0.0000 C   0  0
    1.6530   -5.1718    0.0000 N   0  3
    0.6540   -6.2918    0.0000 C   0  0
    1.1235   -7.7173    0.0000 C   0  0
    0.1243   -8.8360    0.0000 C   0  0
    0.5935  -10.2607    0.0000 C   0  0
    2.0620  -10.5667    0.0000 C   0  0
    2.5344  -11.9912    0.0000 C   0  0
    4.0041  -12.2953    0.0000 C   0  0
    4.4766  -13.7198    0.0000 C   0  0
    3.6788  -14.6162    0.0000 O   0  0
    5.9463  -14.0239    0.0000 N   0  0
    6.4187  -15.4484    0.0000 O   0  0
    3.0612   -9.4480    0.0000 C   0  0
    2.5919   -8.0233    0.0000 C   0  0
    3.9339    4.7994    0.0000 H   0  0
    5.5020    4.0643    0.0000 H   0  0
    4.9301    4.8845    0.0000 H   0  0
    6.6501    2.4150    0.0000 H   0  0
    8.0727    0.3593    0.0000 H   0  0
    4.5118   -2.1047    0.0000 H   0  0
   -0.9997    2.5132    0.0000 H   0  0
   -3.1826    1.2456    0.0000 H   0  0
   -3.1826   -1.2456    0.0000 H   0  0
   -0.9997   -2.5132    0.0000 H   0  0
    3.1616   -2.8300    0.0000 H   0  0
    2.8486   -1.8804    0.0000 H   0  0
    0.2045   -3.5426    0.0000 H   0  0
    0.8702   -2.7967    0.0000 H   0  0
   -0.3251   -6.0881    0.0000 H   0  0
   -0.0121   -7.0377    0.0000 H   0  0
   -0.8547   -8.6321    0.0000 H   0  0
   -0.0726  -11.0066    0.0000 H   0  0
    1.8696  -12.7382    0.0000 H   0  0
    4.6690  -11.5483    0.0000 H   0  0
    4.0402   -9.6520    0.0000 H   0  0
    3.2581   -7.2774    0.0000 H   0  0
    2.0210    2.1549    0.0000 H   0  0
    2.6320   -5.3755    0.0000 H   0  0
    2.3190   -4.4259    0.0000 H   0  0
    6.6111  -13.2769    0.0000 H   0  0
    7.3980  -15.6510    0.0000 H   0  0
  1  2  1  0
  2  3  1  0
  3  4  2  0
  4  5  1  0
  5  6  2  0
  6  7  1  0
  7  8  2  0
  3  8  1  0
  8  9  1  0
  9 10  1  0
 10 11  1  0
 11 12  2  0
 12 13  1  0
 13 14  2  0
 14 15  1  0
 15 16  2  0
 11 16  1  0
 16 17  1  0
  9 17  2  0
 17 18  1  0
 18 19  1  0
 19 20  1  0
 20 21  1  0
 21 22  1  0
 22 23  2  0
 23 24  1  0
 24 25  2  0
 25 26  1  0
 26 27  2  0
 27 28  1  0
 28 29  2  0
 28 30  1  0
 30 31  1  0
 25 32  1  0
 32 33  2  0
 22 33  1  0
  1 34  1  0
  1 35  1  0
  1 36  1  0
  4 37  1  0
  5 38  1  0
  7 39  1  0
 12 40  1  0
 13 41  1  0
 14 42  1  0
 15 43  1  0
 18 44  1  0
 18 45  1  0
 19 46  1  0
 19 47  1  0
 21 48  1  0
 21 49  1  0
 23 50  1  0
 24 51  1  0
 26 52  1  0
 27 53  1  0
 32 54  1  0
 33 55  1  0
 10 56  1  0
 20 57  1  0
 20 58  1  0
 30 59  1  0
 31 60  1  0
M  CHG  1  20   1
M  STY  1   1 DAT
M  SAL   1  1  10
M  SDT   1 MRV_IMPLICIT_H
M  SDD   1     0.0000    0.0000    DR    ALL  0       0
M  SED   1 IMPL_H1
M  END
> <Name>
CHEMBL1819257

> <ALogP>
2.46

> <Molecular_Weight>
443.51758

> <Num_H_Acceptors>
4

> <Num_H_Donors>
4

> <Num_RotatableBonds>
9

> <FormalCharge>
1

$$$$
CHEMBL485514
  SciTegic01131515592D

 48 50  0  0  0  0            999 V2000
    6.5226  -14.0674    0.0000 O   0  0
    6.5195  -12.5666    0.0000 N   0  0
    5.2187  -11.8181    0.0000 C   0  0
    4.1805  -12.4199    0.0000 O   0  0
    5.2156  -10.3172    0.0000 C   0  0
    3.9148   -9.5687    0.0000 C   0  0
    3.9117   -8.0679    0.0000 C   0  0
    2.6109   -7.3193    0.0000 C   0  0
    2.6078   -5.8185    0.0000 C   0  0
    1.3070   -5.0699    0.0000 N   0  0
    1.3039   -3.5691    0.0000 C   0  0
    2.3421   -2.9673    0.0000 O   0  0
    0.0031   -2.8205    0.0000 C   0  0
    0.0000   -1.3190    0.0000 C   0  0
   -1.2274   -0.6045    0.0000 C   0  0
   -2.4915   -1.3190    0.0000 C   0  0
   -3.7006   -0.6045    0.0000 C   0  0
   -3.7006    0.8244    0.0000 C   0  0
   -2.4915    1.5389    0.0000 C   0  0
   -1.2274    0.8244    0.0000 C   0  0
    1.2274    0.8244    0.0000 C   0  0
    2.4732    1.5389    0.0000 C   0  0
    3.7372    0.8244    0.0000 C   0  0
    3.7372   -0.6045    0.0000 C   0  0
    2.4732   -1.3190    0.0000 C   0  0
    1.2274   -0.6045    0.0000 C   0  0
    6.0808   -9.8157    0.0000 H   0  0
    6.0826  -10.8156    0.0000 H   0  0
    3.0497  -10.0702    0.0000 H   0  0
    3.0478   -9.0703    0.0000 H   0  0
    4.7769   -7.5664    0.0000 H   0  0
    3.9101   -7.0679    0.0000 H   0  0
    1.7458   -7.8208    0.0000 H   0  0
    1.7439   -6.8210    0.0000 H   0  0
    3.4730   -5.3170    0.0000 H   0  0
    2.6062   -4.8185    0.0000 H   0  0
   -0.8621   -3.3221    0.0000 H   0  0
   -2.5011   -2.3190    0.0000 H   0  0
   -4.5691   -1.1002    0.0000 H   0  0
   -4.5691    1.3200    0.0000 H   0  0
   -2.5011    2.5388    0.0000 H   0  0
    2.4700    2.5388    0.0000 H   0  0
    4.6009    1.3283    0.0000 H   0  0
    4.6009   -1.1085    0.0000 H   0  0
    2.4700   -2.3190    0.0000 H   0  0
    7.3894  -14.5662    0.0000 H   0  0
    7.3847  -12.0651    0.0000 H   0  0
    0.4418   -5.5714    0.0000 H   0  0
  1  2  1  0
  2  3  1  0
  3  4  2  0
  3  5  1  0
  5  6  1  0
  6  7  1  0
  7  8  1  0
  8  9  1  0
  9 10  1  0
 10 11  1  0
 11 12  2  0
 11 13  1  0
 13 14  2  0
 14 15  1  0
 15 16  2  0
 16 17  1  0
 17 18  2  0
 18 19  1  0
 19 20  2  0
 15 20  1  0
 20 21  1  0
 21 22  2  0
 22 23  1  0
 23 24  2  0
 24 25  1  0
 25 26  2  0
 14 26  1  0
 21 26  1  0
  5 27  1  0
  5 28  1  0
  6 29  1  0
  6 30  1  0
  7 31  1  0
  7 32  1  0
  8 33  1  0
  8 34  1  0
  9 35  1  0
  9 36  1  0
 13 37  1  0
 16 38  1  0
 17 39  1  0
 18 40  1  0
 19 41  1  0
 22 42  1  0
 23 43  1  0
 24 44  1  0
 25 45  1  0
  1 46  1  0
  2 47  1  0
 10 48  1  0
M  END
> <Name>
CHEMBL485514

> <ALogP>
3.021

> <Molecular_Weight>
350.41098

> <Num_H_Acceptors>
3

> <Num_H_Donors>
3

> <Num_RotatableBonds>
7

> <FormalCharge>
0

$$$$
CHEMBL403323
  SciTegic01131515592D

 53 55  0  0  0  0            999 V2000
    7.1267   -2.5296    0.0000 O   0  0
    6.3593   -1.2398    0.0000 C   0  0
    7.0917    0.0702    0.0000 C   0  0
    6.3243    1.3600    0.0000 N   0  3
    4.8236    1.3429    0.0000 C   0  0
    4.0872    0.0351    0.0000 C   0  0
    2.5889    0.0182    0.0000 C   0  0
    1.7138    1.2033    0.0000 C   0  0
    0.2917    0.7475    0.0000 C   0  0
   -1.0028    1.5132    0.0000 C   0  0
   -2.3155    0.7475    0.0000 C   0  0
   -2.3155   -0.7475    0.0000 C   0  0
   -1.0028   -1.5132    0.0000 C   0  0
    0.2917   -0.7475    0.0000 C   0  0
    1.7138   -1.2033    0.0000 N   0  0
    7.0607    2.6677    0.0000 C   0  0
    8.5614    2.6848    0.0000 C   0  0
    9.3262    1.3944    0.0000 C   0  0
   10.8261    1.4115    0.0000 C   0  0
   11.5613    2.7190    0.0000 C   0  0
   13.0620    2.7391    0.0000 C   0  0
   13.7957    4.0484    0.0000 C   0  0
   15.2963    4.0686    0.0000 C   0  0
   15.9099    3.0373    0.0000 O   0  0
   16.0300    5.3778    0.0000 N   0  0
   17.5307    5.3980    0.0000 O   0  0
   10.7965    4.0094    0.0000 C   0  0
    9.2966    3.9923    0.0000 C   0  0
    5.8708   -2.1124    0.0000 H   0  0
    5.3594   -1.2532    0.0000 H   0  0
    7.5802    0.9428    0.0000 H   0  0
    8.0916    0.0836    0.0000 H   0  0
    5.3138    2.2145    0.0000 H   0  0
    4.3140    2.2033    0.0000 H   0  0
    3.5970   -0.8365    0.0000 H   0  0
    4.5968   -0.8253    0.0000 H   0  0
    2.0210    2.1549    0.0000 H   0  0
   -0.9997    2.5132    0.0000 H   0  0
   -3.1826    1.2456    0.0000 H   0  0
   -3.1826   -1.2456    0.0000 H   0  0
   -0.9997   -2.5132    0.0000 H   0  0
    6.0608    2.6568    0.0000 H   0  0
    6.5512    3.5281    0.0000 H   0  0
    8.8361    0.5227    0.0000 H   0  0
   11.3359    0.5512    0.0000 H   0  0
   13.5733    1.8797    0.0000 H   0  0
   13.2843    4.9078    0.0000 H   0  0
   11.2866    4.8810    0.0000 H   0  0
    8.7868    4.8526    0.0000 H   0  0
    6.6386   -3.4024    0.0000 H   0  0
    2.0279   -2.1527    0.0000 H   0  0
   15.5187    6.2372    0.0000 H   0  0
   18.0196    6.2704    0.0000 H   0  0
  1  2  1  0
  2  3  1  0
  3  4  1  0
  4  5  1  0
  5  6  1  0
  6  7  1  0
  7  8  2  0
  8  9  1  0
  9 10  2  0
 10 11  1  0
 11 12  2  0
 12 13  1  0
 13 14  2  0
  9 14  1  0
 14 15  1  0
  7 15  1  0
  4 16  1  0
 16 17  1  0
 17 18  2  0
 18 19  1  0
 19 20  2  0
 20 21  1  0
 21 22  2  0
 22 23  1  0
 23 24  2  0
 23 25  1  0
 25 26  1  0
 20 27  1  0
 27 28  2  0
 17 28  1  0
  2 29  1  0
  2 30  1  0
  3 31  1  0
  3 32  1  0
  5 33  1  0
  5 34  1  0
  6 35  1  0
  6 36  1  0
  8 37  1  0
 10 38  1  0
 11 39  1  0
 12 40  1  0
 13 41  1  0
 16 42  1  0
 16 43  1  0
 18 44  1  0
 19 45  1  0
 21 46  1  0
 22 47  1  0
 27 48  1  0
 28 49  1  0
  1 50  1  0
 15 51  1  0
 25 52  1  0
 26 53  1  0
M  CHG  1   4   1
M  STY  1   1 DAT
M  SAL   1  1  15
M  SDT   1 MRV_IMPLICIT_H
M  SDD   1     0.0000    0.0000    DR    ALL  0       0
M  SED   1 IMPL_H1
M  END
> <Name>
CHEMBL403323

> <ALogP>
1.489

> <Molecular_Weight>
380.46014

> <Num_H_Acceptors>
3

> <Num_H_Donors>
5

> <Num_RotatableBonds>
9

> <FormalCharge>
1

$$$$
CHEMBL394261
  SciTegic01131515592D

 78 82  0  0  1  0            999 V2000
    5.1488   -2.3236    0.0000 C   0  0
    4.7164   -3.7198    0.0000 C   0  0  2  0  0  0
    4.0824   -2.3603    0.0000 N   0  0
    2.8537   -1.5000    0.0000 C   0  0
    3.2641   -0.3723    0.0000 O   0  0
    1.3594   -1.3693    0.0000 C   0  0
    1.7710    0.1217    0.0000 C   0  0
    0.5536    0.9980    0.0000 C   0  0
    0.3911    2.4881    0.0000 C   0  0
   -0.9819    3.0922    0.0000 C   0  0
   -2.1916    2.2052    0.0000 C   0  0
   -2.0282    0.7141    0.0000 C   0  0
   -0.6560    0.1111    0.0000 C   0  0
   -0.1863   -1.3135    0.0000 C   0  0
    0.0000   -2.0032    0.0000 N   0  0
   -0.8604   -3.2319    0.0000 C   0  0
   -1.9880   -2.8215    0.0000 O   0  0
   -0.9911   -4.7262    0.0000 C   0  0  2  0  0  0
   -2.4165   -4.4026    0.0000 C   0  0
   -3.4890   -5.4525    0.0000 C   0  0
   -4.9347   -5.0495    0.0000 C   0  0
   -6.0072   -6.0994    0.0000 C   0  0
   -7.4529   -5.6964    0.0000 C   0  0
   -8.5254   -6.7463    0.0000 S   0  0
   -9.9711   -6.3433    0.0000 S   0  0
  -11.0436   -7.3932    0.0000 C   0  0
  -12.5390   -7.5112    0.0000 C   0  0
  -13.1846   -8.8651    0.0000 C   0  0
  -12.3349  -10.1012    0.0000 C   0  0
  -10.8395   -9.9834    0.0000 C   0  0
  -10.1939   -8.6294    0.0000 N   0  0
   -0.3572   -6.0857    0.0000 N   0  0
    0.8715   -6.9460    0.0000 C   0  0
    0.4611   -8.0737    0.0000 O   0  0
    2.3658   -7.0768    0.0000 C   0  0  1  0  0  0
    2.5581   -8.5670    0.0000 C   0  0
    4.0310   -8.8506    0.0000 C   0  0
    4.7559   -7.5374    0.0000 C   0  0
    3.7253   -6.4428    0.0000 N   0  0
    4.5856   -5.2141    0.0000 C   0  0
    5.7133   -5.6245    0.0000 O   0  0
    4.5064   -1.5573    0.0000 H   0  0
    6.1336   -2.1501    0.0000 H   0  0
    5.4911   -1.3840    0.0000 H   0  0
    5.3211   -4.5162    0.0000 H   0  0
    2.5195   -0.5415    0.0000 H   0  0
    1.9386    1.1075    0.0000 H   0  0
    1.1976    3.0792    0.0000 H   0  0
   -1.0908    4.0863    0.0000 H   0  0
   -3.1069    2.6080    0.0000 H   0  0
   -2.8346    0.1227    0.0000 H   0  0
    0.4009   -0.5040    0.0000 H   0  0
   -1.1769   -1.1769    0.0000 H   0  0
   -1.2870   -5.6814    0.0000 H   0  0
   -3.3796   -4.1337    0.0000 H   0  0
   -2.6653   -3.4340    0.0000 H   0  0
   -2.5258   -5.7214    0.0000 H   0  0
   -3.2402   -6.4210    0.0000 H   0  0
   -4.2204   -4.3496    0.0000 H   0  0
   -5.1835   -4.0810    0.0000 H   0  0
   -5.0440   -6.3683    0.0000 H   0  0
   -5.7584   -7.0679    0.0000 H   0  0
   -8.4161   -5.4275    0.0000 H   0  0
   -7.7017   -4.7279    0.0000 H   0  0
  -13.1055   -6.6871    0.0000 H   0  0
  -14.1815   -8.9437    0.0000 H   0  0
  -12.7653  -11.0038    0.0000 H   0  0
  -10.2730  -10.8074    0.0000 H   0  0
    1.6734   -7.7982    0.0000 H   0  0
    3.2970   -7.8933    0.0000 H   0  0
    2.8014   -9.5370    0.0000 H   0  0
    3.4466   -9.6621    0.0000 H   0  0
    5.0285   -8.9213    0.0000 H   0  0
    5.3484   -8.3430    0.0000 H   0  0
    5.1300   -6.6101    0.0000 H   0  0
    4.8485   -1.7175    0.0000 H   0  0
   -0.3421   -2.9429    0.0000 H   0  0
   -1.1232   -6.7285    0.0000 H   0  0
  2  1  1  0
  2  3  1  0
  3  4  1  0
  4  5  2  0
  4  6  1  0
  6  7  1  0
  7  8  1  0
  8  9  2  0
  9 10  1  0
 10 11  2  0
 11 12  1  0
 12 13  2  0
  8 13  1  0
 13 14  1  0
  6 14  1  0
  6 15  1  0
 15 16  1  0
 16 17  2  0
 16 18  1  0
 18 19  1  0
 19 20  1  0
 20 21  1  0
 21 22  1  0
 22 23  1  0
 23 24  1  0
 24 25  1  0
 25 26  1  0
 26 27  2  0
 27 28  1  0
 28 29  2  0
 29 30  1  0
 30 31  2  0
 26 31  1  0
 18 32  1  0
 32 33  1  0
 33 34  2  0
 33 35  1  0
 35 36  1  0
 36 37  1  0
 37 38  1  0
 38 39  1  0
 35 39  1  0
 39 40  1  0
  2 40  1  0
 40 41  2  0
  1 42  1  0
  1 43  1  0
  1 44  1  0
  2 45  1  6
  7 46  1  0
  7 47  1  0
  9 48  1  0
 10 49  1  0
 11 50  1  0
 12 51  1  0
 14 52  1  0
 14 53  1  0
 18 54  1  6
 19 55  1  0
 19 56  1  0
 20 57  1  0
 20 58  1  0
 21 59  1  0
 21 60  1  0
 22 61  1  0
 22 62  1  0
 23 63  1  0
 23 64  1  0
 27 65  1  0
 28 66  1  0
 29 67  1  0
 30 68  1  0
 35 69  1  1
 36 70  1  0
 36 71  1  0
 37 72  1  0
 37 73  1  0
 38 74  1  0
 38 75  1  0
  3 76  1  0
 15 77  1  0
 32 78  1  0
M  END
> <Name>
CHEMBL394261

> <ALogP>
3.463

> <Molecular_Weight>
595.77587

> <Num_H_Acceptors>
7

> <Num_H_Donors>
3

> <Num_RotatableBonds>
8

> <FormalCharge>
0

$$$$
CHEMBL217154
  SciTegic01131515592D

 54 55  0  0  0  0            999 V2000
    3.9026    0.7500    0.0000 C   0  0
    3.8990   -0.7508    0.0000 N   0  0
    2.5988   -1.5004    0.0000 C   0  0
    1.2990   -0.7500    0.0000 C   0  0
    1.2990    0.7500    0.0000 C   0  0
    0.0000    1.5000    0.0000 C   0  0
   -1.2990    0.7500    0.0000 C   0  0
   -2.3383    1.3500    0.0000 Cl  0  0
   -1.2990   -0.7500    0.0000 C   0  0
    0.0000   -1.5000    0.0000 C   0  0
    5.1988   -1.5012    0.0000 C   0  0
    6.4994   -0.7539    0.0000 C   0  0
    7.7969   -1.5066    0.0000 C   0  0
    7.7939   -3.0066    0.0000 C   0  0
    9.0905   -3.7623    0.0000 O   0  0
    9.0854   -5.2631    0.0000 C   0  0
   10.3820   -6.0188    0.0000 C   0  0
   10.3768   -7.5197    0.0000 C   0  0
   11.6735   -8.2754    0.0000 C   0  0
   11.6683   -9.7762    0.0000 C   0  0
   12.9650  -10.5319    0.0000 C   0  0
   12.9598  -12.0327    0.0000 C   0  0
   11.9183  -12.6288    0.0000 O   0  0
   14.2565  -12.7885    0.0000 N   0  0
   14.2513  -14.2893    0.0000 O   0  0
    6.4933   -3.7539    0.0000 C   0  0
    5.1958   -3.0013    0.0000 C   0  0
    4.7695    1.2485    0.0000 H   0  0
    3.9045    1.7500    0.0000 H   0  0
    3.0376    1.2518    0.0000 H   0  0
    3.4646   -2.0008    0.0000 H   0  0
    2.5985   -2.5004    0.0000 H   0  0
    2.1651    1.2500    0.0000 H   0  0
    0.0000    2.5000    0.0000 H   0  0
   -2.1651   -1.2500    0.0000 H   0  0
    0.0000   -2.5000    0.0000 H   0  0
    6.5015    0.2461    0.0000 H   0  0
    8.6640   -1.0083    0.0000 H   0  0
    8.2211   -4.7600    0.0000 H   0  0
    8.2175   -5.7598    0.0000 H   0  0
   10.3860   -5.0188    0.0000 H   0  0
   11.2499   -5.5221    0.0000 H   0  0
    9.5126   -7.0165    0.0000 H   0  0
    9.5089   -8.0164    0.0000 H   0  0
   11.6774   -7.2754    0.0000 H   0  0
   12.5414   -7.7787    0.0000 H   0  0
   10.8041   -9.2731    0.0000 H   0  0
   10.8004  -10.2729    0.0000 H   0  0
   13.8292  -11.0350    0.0000 H   0  0
   13.8329  -10.0352    0.0000 H   0  0
    6.4913   -4.7539    0.0000 H   0  0
    4.3288   -3.4996    0.0000 H   0  0
   15.1244  -12.2917    0.0000 H   0  0
   15.1153  -14.7928    0.0000 H   0  0
  1  2  1  0
  2  3  1  0
  3  4  1  0
  4  5  2  0
  5  6  1  0
  6  7  2  0
  7  8  1  0
  7  9  1  0
  9 10  2  0
  4 10  1  0
  2 11  1  0
 11 12  2  0
 12 13  1  0
 13 14  2  0
 14 15  1  0
 15 16  1  0
 16 17  1  0
 17 18  1  0
 18 19  1  0
 19 20  1  0
 20 21  1  0
 21 22  1  0
 22 23  2  0
 22 24  1  0
 24 25  1  0
 14 26  1  0
 26 27  2  0
 11 27  1  0
  1 28  1  0
  1 29  1  0
  1 30  1  0
  3 31  1  0
  3 32  1  0
  5 33  1  0
  6 34  1  0
  9 35  1  0
 10 36  1  0
 12 37  1  0
 13 38  1  0
 16 39  1  0
 16 40  1  0
 17 41  1  0
 17 42  1  0
 18 43  1  0
 18 44  1  0
 19 45  1  0
 19 46  1  0
 20 47  1  0
 20 48  1  0
 21 49  1  0
 21 50  1  0
 26 51  1  0
 27 52  1  0
 24 53  1  0
 25 54  1  0
M  END
> <Name>
CHEMBL217154

> <ALogP>
5.028

> <Molecular_Weight>
390.90368

> <Num_H_Acceptors>
4

> <Num_H_Donors>
2

> <Num_RotatableBonds>
11

> <FormalCharge>
0

$$$$
CHEMBL2047690
  SciTegic01131515592D

 33 33  0  0  0  0            999 V2000
    2.5951   -3.0039    0.0000 C   0  0
    2.5973   -1.5031    0.0000 S   0  0
    1.2990   -0.7500    0.0000 C   0  0
    1.2990    0.7500    0.0000 C   0  0
    0.0000    1.5000    0.0000 C   0  0
   -1.2990    0.7500    0.0000 C   0  0
   -2.5988    1.5004    0.0000 C   0  0
   -2.5998    3.0012    0.0000 C   0  0
   -1.3018    3.7547    0.0000 N   0  0
   -0.2608    3.1579    0.0000 O   0  5
   -3.8995    3.7516    0.0000 C   0  0
   -4.9385    3.1513    0.0000 O   0  0
   -3.9005    5.2525    0.0000 N   0  0
   -5.2002    6.0029    0.0000 C   0  0
   -5.2012    7.5037    0.0000 C   0  0
   -6.5009    8.2541    0.0000 S   0  0
   -1.2990   -0.7500    0.0000 C   0  0
    0.0000   -1.5000    0.0000 C   0  0
    3.4601   -3.5057    0.0000 H   0  0
    1.7282   -3.5024    0.0000 H   0  0
    2.5932   -4.0039    0.0000 H   0  0
    2.1651    1.2500    0.0000 H   0  0
    0.0000    2.5000    0.0000 H   0  0
   -3.4647    1.0001    0.0000 H   0  0
   -3.4651    2.0000    0.0000 H   0  0
   -6.0661    5.5026    0.0000 H   0  0
   -5.2001    5.0029    0.0000 H   0  0
   -4.3353    8.0040    0.0000 H   0  0
   -5.2013    8.5037    0.0000 H   0  0
   -2.1651   -1.2500    0.0000 H   0  0
    0.0000   -2.5000    0.0000 H   0  0
   -3.0346    5.7527    0.0000 H   0  0
   -6.5016    9.2541    0.0000 H   0  0
  1  2  1  0
  2  3  1  0
  3  4  2  0
  4  5  1  0
  5  6  2  0
  6  7  1  0
  7  8  1  0
  8  9  2  0
  9 10  1  0
  8 11  1  0
 11 12  2  0
 11 13  1  0
 13 14  1  0
 14 15  1  0
 15 16  1  0
  6 17  1  0
 17 18  2  0
  3 18  1  0
  1 19  1  0
  1 20  1  0
  1 21  1  0
  4 22  1  0
  5 23  1  0
  7 24  1  0
  7 25  1  0
 14 26  1  0
 14 27  1  0
 15 28  1  0
 15 29  1  0
 17 30  1  0
 18 31  1  0
 13 32  1  0
 16 33  1  0
M  CHG  1  10  -1
M  END
> <Name>
CHEMBL2047690

> <ALogP>
1.286

> <Molecular_Weight>
283.3897

> <Num_H_Acceptors>
5

> <Num_H_Donors>
2

> <Num_RotatableBonds>
6

> <FormalCharge>
-1

$$$$
CHEMBL609583
  SciTegic01131515592D

 48 51  0  0  0  0            999 V2000
  -15.6152   -3.7255    0.0000 O   0  0
  -14.3121   -2.9809    0.0000 N   0  0
  -13.0152   -3.7362    0.0000 C   0  0
  -13.0201   -4.9362    0.0000 O   0  0
  -11.7121   -2.9915    0.0000 C   0  0
  -10.4149   -3.7446    0.0000 C   0  0
   -9.1141   -2.9976    0.0000 N   0  0
   -9.1104   -1.4976    0.0000 C   0  0
  -10.4078   -0.7446    0.0000 N   0  0
  -11.7086   -1.4915    0.0000 C   0  0
   -7.8102   -0.7482    0.0000 N   0  0
   -6.5117   -1.4992    0.0000 C   0  0
   -5.2121   -0.7502    0.0000 C   0  0
   -5.2109    0.7498    0.0000 N   0  0
   -6.5094    1.5008    0.0000 C   0  0
   -7.8090    0.7518    0.0000 C   0  0
   -3.9106    1.4992    0.0000 S   0  0
   -3.9101    2.6992    0.0000 O   0  0
   -4.9495    2.0999    0.0000 O   0  0
   -2.6111    0.7486    0.0000 C   0  0
   -2.6111   -0.7486    0.0000 C   0  0
   -1.2964   -1.4973    0.0000 C   0  0
    0.0000   -0.7486    0.0000 C   0  0
    1.2964   -1.4973    0.0000 C   0  0
    2.5929   -0.7486    0.0000 C   0  0
    2.5929    0.7486    0.0000 C   0  0
    1.2964    1.4973    0.0000 C   0  0
    0.0000    0.7486    0.0000 C   0  0
   -1.2964    1.4973    0.0000 C   0  0
  -10.4172   -4.7446    0.0000 H   0  0
  -12.5734   -0.9895    0.0000 H   0  0
   -5.6345   -1.9793    0.0000 H   0  0
   -7.3896   -1.9780    0.0000 H   0  0
   -6.0657   -0.2292    0.0000 H   0  0
   -4.3576   -0.2306    0.0000 H   0  0
   -7.3866    1.9809    0.0000 H   0  0
   -5.6315    1.9797    0.0000 H   0  0
   -7.7847    1.7515    0.0000 H   0  0
   -8.6635    0.2323    0.0000 H   0  0
   -3.4756   -1.2512    0.0000 H   0  0
   -1.2934   -2.4973    0.0000 H   0  0
    1.2964   -2.4973    0.0000 H   0  0
    3.4589   -1.2486    0.0000 H   0  0
    3.4589    1.2486    0.0000 H   0  0
    1.2964    2.4973    0.0000 H   0  0
   -1.2934    2.4973    0.0000 H   0  0
  -16.4793   -3.2222    0.0000 H   0  0
  -14.3080   -1.9809    0.0000 H   0  0
  1  2  1  0
  2  3  1  0
  3  4  2  0
  3  5  1  0
  5  6  2  0
  6  7  1  0
  7  8  2  0
  8  9  1  0
  9 10  2  0
  5 10  1  0
  8 11  1  0
 11 12  1  0
 12 13  1  0
 13 14  1  0
 14 15  1  0
 15 16  1  0
 11 16  1  0
 14 17  1  0
 17 18  2  0
 17 19  2  0
 17 20  1  0
 20 21  2  0
 21 22  1  0
 22 23  2  0
 23 24  1  0
 24 25  2  0
 25 26  1  0
 26 27  2  0
 27 28  1  0
 23 28  1  0
 28 29  2  0
 20 29  1  0
  6 30  1  0
 10 31  1  0
 12 32  1  0
 12 33  1  0
 13 34  1  0
 13 35  1  0
 15 36  1  0
 15 37  1  0
 16 38  1  0
 16 39  1  0
 21 40  1  0
 22 41  1  0
 24 42  1  0
 25 43  1  0
 26 44  1  0
 27 45  1  0
 29 46  1  0
  1 47  1  0
  2 48  1  0
M  END
> <Name>
CHEMBL609583

> <ALogP>
0.622

> <Molecular_Weight>
413.45026

> <Num_H_Acceptors>
7

> <Num_H_Donors>
2

> <Num_RotatableBonds>
4

> <FormalCharge>
0

$$$$
CHEMBL1801250
  SciTegic01131515592D

 49 53  0  0  1  0            999 V2000
  -15.3408   -0.6345    0.0000 O   0  0
  -14.0413    0.1164    0.0000 N   0  0
  -12.7408   -0.6327    0.0000 C   0  0
  -12.7399   -1.8327    0.0000 O   0  0
  -11.4413    0.1182    0.0000 C   0  0
  -10.1404   -0.6286    0.0000 C   0  0
   -8.8432    0.1245    0.0000 N   0  0
   -8.8469    1.6243    0.0000 C   0  0
  -10.1478    2.3714    0.0000 N   0  0
  -11.4450    1.6182    0.0000 C   0  0
   -7.5526    2.3840    0.0000 N   0  0
   -7.5556    3.7424    0.0000 C   0  0
   -6.3653    4.4366    0.0000 C   0  0  2  0  0  0
   -5.1887    2.4193    0.0000 C   0  0  2  0  0  0
   -6.3790    1.7250    0.0000 C   0  0
   -5.2110    3.7506    0.0000 C   0  0  1  0  0  0
   -3.9114    3.0001    0.0000 N   0  3
   -3.9106    1.4992    0.0000 C   0  0
   -2.6111    0.7486    0.0000 C   0  0
   -2.6111   -0.7486    0.0000 C   0  0
   -1.2964   -1.4973    0.0000 C   0  0
    0.0000   -0.7486    0.0000 C   0  0
    1.2964   -1.4973    0.0000 C   0  0
    2.5929   -0.7486    0.0000 C   0  0
    3.6321   -1.3486    0.0000 F   0  0
    2.5929    0.7486    0.0000 C   0  0
    1.2964    1.4973    0.0000 C   0  0
    0.0000    0.7486    0.0000 C   0  0
   -1.2964    1.4973    0.0000 N   0  0
  -10.1380   -1.6286    0.0000 H   0  0
  -12.3122    2.1161    0.0000 H   0  0
   -7.5352    4.7422    0.0000 H   0  0
   -8.4079    3.2192    0.0000 H   0  0
   -6.3694    3.4366    0.0000 H   0  0
   -6.0599    2.9101    0.0000 H   0  0
   -5.4974    1.2531    0.0000 H   0  0
   -7.2527    1.2386    0.0000 H   0  0
   -5.2112    4.7506    0.0000 H   0  0
   -3.9106    0.4992    0.0000 H   0  0
   -4.7765    0.9991    0.0000 H   0  0
   -3.4756   -1.2512    0.0000 H   0  0
   -1.2934   -2.4973    0.0000 H   0  0
    1.2964   -2.4973    0.0000 H   0  0
    3.4589    1.2486    0.0000 H   0  0
    1.2964    2.4973    0.0000 H   0  0
  -16.2073   -0.1354    0.0000 H   0  0
  -14.0420    1.1164    0.0000 H   0  0
   -3.0452    2.5004    0.0000 H   0  0
   -3.0454    3.5002    0.0000 H   0  0
  1  2  1  0
  2  3  1  0
  3  4  2  0
  3  5  1  0
  5  6  2  0
  6  7  1  0
  7  8  2  0
  8  9  1  0
  9 10  2  0
  5 10  1  0
  8 11  1  0
 11 12  1  0
 13 12  1  0
 13 14  1  0
 14 15  1  0
 11 15  1  0
 14 16  1  0
 13 16  1  0
 16 17  1  0
 17 18  1  0
 18 19  1  0
 19 20  2  0
 20 21  1  0
 21 22  2  0
 22 23  1  0
 23 24  2  0
 24 25  1  0
 24 26  1  0
 26 27  2  0
 27 28  1  0
 22 28  1  0
 28 29  2  0
 19 29  1  0
  6 30  1  0
 10 31  1  0
 12 32  1  0
 12 33  1  0
 13 34  1  6
 14 35  1  6
 15 36  1  0
 15 37  1  0
 16 38  1  1
 18 39  1  0
 18 40  1  0
 20 41  1  0
 21 42  1  0
 23 43  1  0
 26 44  1  0
 27 45  1  0
  1 46  1  0
  2 47  1  0
 17 48  1  0
 17 49  1  0
M  CHG  1  17   1
M  END
> <Name>
CHEMBL1801250

> <ALogP>
-0.723

> <Molecular_Weight>
395.4102

> <Num_H_Acceptors>
6

> <Num_H_Donors>
3

> <Num_RotatableBonds>
5

> <FormalCharge>
1

$$$$
CHEMBL445506
  SciTegic01131515592D

 76 80  0  0  1  0            999 V2000
  -13.0283    9.5541    0.0000 C   0  0
  -14.3957    8.9355    0.0000 O   0  0
  -14.5447    7.4421    0.0000 C   0  0
  -15.9101    6.8332    0.0000 C   0  0
  -16.0748    5.3225    0.0000 C   0  0
  -14.8483    4.4521    0.0000 C   0  0
  -14.6854    2.9677    0.0000 N   0  0
  -13.2133    2.6659    0.0000 C   0  0
  -12.5783    1.3088    0.0000 C   0  0
  -12.5065    3.9469    0.0000 C   0  0
  -11.0141    4.1049    0.0000 C   0  0
  -10.1302    2.8919    0.0000 C   0  0
  -10.6172    1.7951    0.0000 O   0  0
   -8.6378    3.0499    0.0000 N   0  0
   -7.7540    1.8368    0.0000 C   0  0  1  0  0  0
   -8.3657    0.4663    0.0000 C   0  0
   -9.8584    0.3100    0.0000 C   0  0
  -10.4702   -1.0605    0.0000 C   0  0
  -11.9629   -1.2168    0.0000 C   0  0
  -12.5747   -2.5873    0.0000 C   0  0
  -14.0673   -2.7437    0.0000 C   0  0
  -14.7720   -1.7724    0.0000 O   0  0
  -14.6791   -4.1141    0.0000 N   0  0
  -16.1718   -4.2705    0.0000 O   0  0
   -6.2640    1.9946    0.0000 C   0  0
   -5.5150    3.2942    0.0000 N   0  0
   -4.0476    2.9835    0.0000 C   0  0
   -3.9086    1.5029    0.0000 C   0  0
   -5.2594    0.8807    0.0000 N   0  0
   -2.6111    0.7486    0.0000 C   0  0
   -2.6111   -0.7486    0.0000 C   0  0
   -1.2964   -1.4973    0.0000 C   0  0
    0.0000   -0.7486    0.0000 C   0  0
    1.2964   -1.4973    0.0000 C   0  0
    2.5929   -0.7486    0.0000 C   0  0
    2.5929    0.7486    0.0000 C   0  0
    1.2964    1.4973    0.0000 C   0  0
    0.0000    0.7486    0.0000 C   0  0
   -1.2964    1.4973    0.0000 C   0  0
  -13.4829    5.0610    0.0000 C   0  0
  -13.3107    6.5551    0.0000 C   0  0
  -12.9290   10.5492    0.0000 H   0  0
  -12.2159    8.9709    0.0000 H   0  0
  -12.1170    9.9659    0.0000 H   0  0
  -16.7182    7.4223    0.0000 H   0  0
  -16.9869    4.9124    0.0000 H   0  0
  -13.1502    0.4885    0.0000 H   0  0
  -11.5820    1.2234    0.0000 H   0  0
  -12.1540    0.4033    0.0000 H   0  0
  -10.0197    4.2106    0.0000 H   0  0
  -10.6083    5.0189    0.0000 H   0  0
   -7.1662    1.0277    0.0000 H   0  0
   -7.7785   -0.3431    0.0000 H   0  0
   -7.3711    0.5700    0.0000 H   0  0
  -10.4456    1.1194    0.0000 H   0  0
   -9.4512    1.2233    0.0000 H   0  0
   -9.8830   -1.8699    0.0000 H   0  0
   -9.4756   -0.9568    0.0000 H   0  0
  -12.5501   -0.4074    0.0000 H   0  0
  -11.5557   -0.3035    0.0000 H   0  0
  -11.9874   -3.3967    0.0000 H   0  0
  -12.9819   -3.5007    0.0000 H   0  0
   -3.3010    3.6488    0.0000 H   0  0
   -3.4756   -1.2512    0.0000 H   0  0
   -1.2934   -2.4973    0.0000 H   0  0
    1.2964   -2.4973    0.0000 H   0  0
    3.4589   -1.2486    0.0000 H   0  0
    3.4589    1.2486    0.0000 H   0  0
    1.2964    2.4973    0.0000 H   0  0
   -1.2934    2.4973    0.0000 H   0  0
  -12.3962    6.9596    0.0000 H   0  0
  -15.4245    2.2941    0.0000 H   0  0
   -8.2320    3.9638    0.0000 H   0  0
  -14.0919   -4.9235    0.0000 H   0  0
  -16.5794   -5.1836    0.0000 H   0  0
   -5.9225    4.2074    0.0000 H   0  0
  1  2  1  0
  2  3  1  0
  3  4  2  0
  4  5  1  0
  5  6  2  0
  6  7  1  0
  7  8  1  0
  8  9  1  0
  8 10  2  0
 10 11  1  0
 11 12  1  0
 12 13  2  0
 12 14  1  0
 15 14  1  0
 15 16  1  0
 16 17  1  0
 17 18  1  0
 18 19  1  0
 19 20  1  0
 20 21  1  0
 21 22  2  0
 21 23  1  0
 23 24  1  0
 15 25  1  0
 25 26  1  0
 26 27  1  0
 27 28  2  0
 28 29  1  0
 25 29  2  0
 28 30  1  0
 30 31  2  0
 31 32  1  0
 32 33  2  0
 33 34  1  0
 34 35  2  0
 35 36  1  0
 36 37  2  0
 37 38  1  0
 33 38  1  0
 38 39  2  0
 30 39  1  0
 10 40  1  0
  6 40  1  0
 40 41  2  0
  3 41  1  0
  1 42  1  0
  1 43  1  0
  1 44  1  0
  4 45  1  0
  5 46  1  0
  9 47  1  0
  9 48  1  0
  9 49  1  0
 11 50  1  0
 11 51  1  0
 15 52  1  1
 16 53  1  0
 16 54  1  0
 17 55  1  0
 17 56  1  0
 18 57  1  0
 18 58  1  0
 19 59  1  0
 19 60  1  0
 20 61  1  0
 20 62  1  0
 27 63  1  0
 31 64  1  0
 32 65  1  0
 34 66  1  0
 35 67  1  0
 36 68  1  0
 37 69  1  0
 39 70  1  0
 41 71  1  0
  7 72  1  0
 14 73  1  0
 23 74  1  0
 24 75  1  0
 26 76  1  0
M  STY  2   1 DAT   2 DAT
M  SAL   1  1   7
M  SDT   1 MRV_IMPLICIT_H
M  SDD   1     0.0000    0.0000    DR    ALL  0       0
M  SED   1 IMPL_H1
M  SAL   2  1  29
M  SDT   2 MRV_IMPLICIT_H
M  SDD   2     0.0000    0.0000    DR    ALL  0       0
M  SED   2 IMPL_H1
M  END
> <Name>
CHEMBL445506

> <ALogP>
4.954

> <Molecular_Weight>
553.65139

> <Num_H_Acceptors>
5

> <Num_H_Donors>
5

> <Num_RotatableBonds>
12

> <FormalCharge>
0

$$$$
CHEMBL470421
  SciTegic01131515592D

 57 60  0  0  0  0            999 V2000
    3.8995    0.7499    0.0000 C   0  0
    3.8990   -0.7508    0.0000 P   0  0
    3.8986   -1.9508    0.0000 O   0  0
    2.5988   -1.5004    0.0000 C   0  0
    1.2990   -0.7500    0.0000 C   0  0
    1.2990    0.7500    0.0000 C   0  0
    0.0000    1.5000    0.0000 C   0  0
   -1.2990    0.7500    0.0000 C   0  0
   -1.2990   -0.7500    0.0000 C   0  0
    0.0000   -1.5000    0.0000 C   0  0
   -2.6003    1.4977    0.0000 C   0  0
   -2.6024    2.6977    0.0000 O   0  0
   -3.8990    0.7455    0.0000 N   0  0
   -5.2003    1.4932    0.0000 C   0  0
   -6.4994    0.7432    0.0000 C   0  0
   -7.7985    1.4932    0.0000 C   0  0
   -7.7985    2.9932    0.0000 C   0  0
   -6.4995    3.7432    0.0000 C   0  0
   -5.2004    2.9933    0.0000 C   0  0
   -3.8992    3.7411    0.0000 N   0  0
   -9.0981    0.7428    0.0000 C   0  0
   -9.2383   -0.7379    0.0000 C   0  0
  -10.7060   -1.0475    0.0000 C   0  0
  -11.4540    0.2528    0.0000 C   0  0
  -10.4486    1.3659    0.0000 S   0  0
    5.1988   -1.5012    0.0000 O   0  0
    6.4990   -0.7516    0.0000 C   0  0
    7.7988   -1.5020    0.0000 C   0  0
    7.7988   -3.0021    0.0000 C   0  0
    9.0978   -3.7520    0.0000 C   0  0
   10.3968   -3.0020    0.0000 C   0  0
   10.3968   -1.5020    0.0000 N   0  0
    9.0978   -0.7520    0.0000 C   0  0
    3.0339    1.2508    0.0000 H   0  0
    4.7658    1.2494    0.0000 H   0  0
    3.9003    1.7499    0.0000 H   0  0
    2.5985   -2.5004    0.0000 H   0  0
    1.7327   -2.0003    0.0000 H   0  0
    2.1651    1.2500    0.0000 H   0  0
    0.0000    2.5000    0.0000 H   0  0
   -2.1651   -1.2500    0.0000 H   0  0
    0.0000   -2.5000    0.0000 H   0  0
   -6.4994   -0.2568    0.0000 H   0  0
   -8.6646    3.4932    0.0000 H   0  0
   -6.4995    4.7432    0.0000 H   0  0
   -8.4923   -1.4037    0.0000 H   0  0
  -11.1142   -1.9604    0.0000 H   0  0
  -12.4484    0.3588    0.0000 H   0  0
    6.4993    0.2484    0.0000 H   0  0
    5.6332   -0.2512    0.0000 H   0  0
    6.9327   -3.5021    0.0000 H   0  0
    9.0978   -4.7520    0.0000 H   0  0
   11.2629   -3.5020    0.0000 H   0  0
    9.0978    0.2480    0.0000 H   0  0
   -3.8973   -0.2545    0.0000 H   0  0
   -3.0338    3.2399    0.0000 H   0  0
   -3.8975    4.7411    0.0000 H   0  0
  1  2  1  0
  2  3  2  0
  2  4  1  0
  4  5  1  0
  5  6  2  0
  6  7  1  0
  7  8  2  0
  8  9  1  0
  9 10  2  0
  5 10  1  0
  8 11  1  0
 11 12  2  0
 11 13  1  0
 13 14  1  0
 14 15  2  0
 15 16  1  0
 16 17  2  0
 17 18  1  0
 18 19  2  0
 14 19  1  0
 19 20  1  0
 16 21  1  0
 21 22  2  0
 22 23  1  0
 23 24  2  0
 24 25  1  0
 21 25  1  0
  2 26  1  0
 26 27  1  0
 27 28  1  0
 28 29  2  0
 29 30  1  0
 30 31  2  0
 31 32  1  0
 32 33  2  0
 28 33  1  0
  1 34  1  0
  1 35  1  0
  1 36  1  0
  4 37  1  0
  4 38  1  0
  6 39  1  0
  7 40  1  0
  9 41  1  0
 10 42  1  0
 15 43  1  0
 17 44  1  0
 18 45  1  0
 22 46  1  0
 23 47  1  0
 24 48  1  0
 27 49  1  0
 27 50  1  0
 29 51  1  0
 30 52  1  0
 31 53  1  0
 33 54  1  0
 13 55  1  0
 20 56  1  0
 20 57  1  0
M  END
> <Name>
CHEMBL470421

> <ALogP>
3.175

> <Molecular_Weight>
477.51512

> <Num_H_Acceptors>
5

> <Num_H_Donors>
2

> <Num_RotatableBonds>
8

> <FormalCharge>
0

$$$$
CHEMBL95552
  SciTegic01131515592D

 49 50  0  0  0  0            999 V2000
    7.7794  -12.0195    0.0000 O   0  0
    7.7815  -10.5187    0.0000 N   0  0
    6.4833   -9.7656    0.0000 C   0  0
    5.4431  -10.3638    0.0000 O   0  0
    6.4855   -8.2648    0.0000 C   0  0
    5.1873   -7.5117    0.0000 C   0  0
    5.1894   -6.0109    0.0000 C   0  0
    3.8912   -5.2578    0.0000 C   0  0
    3.8933   -3.7570    0.0000 C   0  0
    2.5951   -3.0039    0.0000 C   0  0
    2.5973   -1.5031    0.0000 C   0  0
    3.8968   -0.7523    0.0000 N   0  0
    5.1972   -1.5014    0.0000 O   0  0
    1.2990   -0.7500    0.0000 C   0  0
    1.2990    0.7500    0.0000 C   0  0
    0.0000    1.5000    0.0000 C   0  0
   -1.2990    0.7500    0.0000 C   0  0
   -1.2990   -0.7500    0.0000 C   0  0
    0.0000   -1.5000    0.0000 C   0  0
   -2.5987    1.5004    0.0000 C   0  0
   -2.6012    3.0004    0.0000 C   0  0
   -3.9015    3.7484    0.0000 C   0  0
   -5.1993    2.9963    0.0000 C   0  0
   -5.1969    1.4963    0.0000 C   0  0
   -3.8967    0.7484    0.0000 C   0  0
    7.3524   -7.7663    0.0000 H   0  0
    7.3507   -8.7662    0.0000 H   0  0
    4.3204   -8.0102    0.0000 H   0  0
    4.3220   -7.0104    0.0000 H   0  0
    6.0563   -5.5124    0.0000 H   0  0
    5.1913   -5.0109    0.0000 H   0  0
    3.0243   -5.7563    0.0000 H   0  0
    3.0260   -4.7564    0.0000 H   0  0
    4.7602   -3.2585    0.0000 H   0  0
    3.8952   -2.7570    0.0000 H   0  0
    1.7282   -3.5024    0.0000 H   0  0
    1.7299   -2.5025    0.0000 H   0  0
    2.1651    1.2500    0.0000 H   0  0
    0.0000    2.5000    0.0000 H   0  0
   -2.1651   -1.2500    0.0000 H   0  0
    0.0000   -2.5000    0.0000 H   0  0
   -1.7360    3.5018    0.0000 H   0  0
   -3.9030    4.7484    0.0000 H   0  0
   -6.0661    3.4949    0.0000 H   0  0
   -6.0621    0.9949    0.0000 H   0  0
   -3.8951   -0.2516    0.0000 H   0  0
    8.6444  -12.5213    0.0000 H   0  0
    8.6484  -10.0202    0.0000 H   0  0
    6.0631   -1.0012    0.0000 H   0  0
  1  2  1  0
  2  3  1  0
  3  4  2  0
  3  5  1  0
  5  6  1  0
  6  7  1  0
  7  8  1  0
  8  9  1  0
  9 10  1  0
 10 11  1  0
 11 12  2  0
 12 13  1  0
 11 14  1  0
 14 15  2  0
 15 16  1  0
 16 17  2  0
 17 18  1  0
 18 19  2  0
 14 19  1  0
 17 20  1  0
 20 21  2  0
 21 22  1  0
 22 23  2  0
 23 24  1  0
 24 25  2  0
 20 25  1  0
  5 26  1  0
  5 27  1  0
  6 28  1  0
  6 29  1  0
  7 30  1  0
  7 31  1  0
  8 32  1  0
  8 33  1  0
  9 34  1  0
  9 35  1  0
 10 36  1  0
 10 37  1  0
 15 38  1  0
 16 39  1  0
 18 40  1  0
 19 41  1  0
 21 42  1  0
 22 43  1  0
 23 44  1  0
 24 45  1  0
 25 46  1  0
  1 47  1  0
  2 48  1  0
 13 49  1  0
M  END
> <Name>
CHEMBL95552

> <ALogP>
4.21

> <Molecular_Weight>
340.41616

> <Num_H_Acceptors>
4

> <Num_H_Donors>
3

> <Num_RotatableBonds>
9

> <FormalCharge>
0

$$$$
CHEMBL2047704
  SciTegic01131515592D

 37 37  0  0  0  0            999 V2000
    2.5951   -3.0039    0.0000 C   0  0
    2.5973   -1.5031    0.0000 N   0  0
    3.8968   -0.7523    0.0000 C   0  0
    1.2990   -0.7500    0.0000 C   0  0
    1.2990    0.7500    0.0000 C   0  0
    0.0000    1.5000    0.0000 C   0  0
   -1.2990    0.7500    0.0000 C   0  0
   -2.5988    1.5004    0.0000 C   0  0
   -2.5998    3.0012    0.0000 C   0  0
   -1.3018    3.7547    0.0000 N   0  0
   -0.2608    3.1579    0.0000 O   0  5
   -3.8995    3.7516    0.0000 C   0  0
   -4.9385    3.1513    0.0000 O   0  0
   -3.9005    5.2525    0.0000 N   0  0
   -5.2002    6.0029    0.0000 C   0  0
   -5.2012    7.5037    0.0000 C   0  0
   -6.5009    8.2541    0.0000 S   0  0
   -1.2990   -0.7500    0.0000 C   0  0
    0.0000   -1.5000    0.0000 C   0  0
    0.0000   -2.7000    0.0000 Br  0  0
    3.4601   -3.5057    0.0000 H   0  0
    2.5932   -4.0039    0.0000 H   0  0
    1.7282   -3.5024    0.0000 H   0  0
    3.8971    0.2477    0.0000 H   0  0
    4.7629   -0.2524    0.0000 H   0  0
    4.7628   -1.2523    0.0000 H   0  0
    2.1651    1.2500    0.0000 H   0  0
    0.0000    2.5000    0.0000 H   0  0
   -3.4647    1.0001    0.0000 H   0  0
   -3.4651    2.0000    0.0000 H   0  0
   -6.0661    5.5026    0.0000 H   0  0
   -5.2001    5.0029    0.0000 H   0  0
   -4.3353    8.0040    0.0000 H   0  0
   -5.2013    8.5037    0.0000 H   0  0
   -2.1651   -1.2500    0.0000 H   0  0
   -3.0346    5.7527    0.0000 H   0  0
   -6.5016    9.2541    0.0000 H   0  0
  1  2  1  0
  2  3  1  0
  2  4  1  0
  4  5  2  0
  5  6  1  0
  6  7  2  0
  7  8  1  0
  8  9  1  0
  9 10  2  0
 10 11  1  0
  9 12  1  0
 12 13  2  0
 12 14  1  0
 14 15  1  0
 15 16  1  0
 16 17  1  0
  7 18  1  0
 18 19  2  0
  4 19  1  0
 19 20  1  0
  1 21  1  0
  1 22  1  0
  1 23  1  0
  3 24  1  0
  3 25  1  0
  3 26  1  0
  5 27  1  0
  6 28  1  0
  8 29  1  0
  8 30  1  0
 15 31  1  0
 15 32  1  0
 16 33  1  0
 16 34  1  0
 18 35  1  0
 14 36  1  0
 17 37  1  0
M  CHG  1  11  -1
M  END
> <Name>
CHEMBL2047704

> <ALogP>
1.655

> <Molecular_Weight>
359.26198

> <Num_H_Acceptors>
5

> <Num_H_Donors>
2

> <Num_RotatableBonds>
6

> <FormalCharge>
-1

$$$$
CHEMBL474890
  SciTegic01131515592D

 63 67  0  0  0  0            999 V2000
   -7.0398    8.9861    0.0000 N   0  0
   -6.9089   10.4812    0.0000 C   0  0
   -8.1359   11.3441    0.0000 C   0  0
   -8.0021   12.8381    0.0000 C   0  0
   -6.6413   13.4692    0.0000 C   0  0
   -5.4144   12.6063    0.0000 C   0  0
   -5.5481   11.1123    0.0000 C   0  0
   -4.3222   10.2464    0.0000 N   0  0
   -4.4582    8.7517    0.0000 C   0  0
   -5.5477    8.2487    0.0000 O   0  0
   -3.2323    7.8859    0.0000 C   0  0
   -3.3661    6.3919    0.0000 C   0  0
   -2.1391    5.5290    0.0000 C   0  0
   -0.7783    6.1602    0.0000 C   0  0
    0.4493    5.2968    0.0000 C   0  0
    0.3168    3.8022    0.0000 N   0  0
    1.5656    2.8889    0.0000 C   0  0
    1.3979    1.3979    0.0000 C   0  0
    0.0186    0.7828    0.0000 C   0  0
   -0.8574   -0.4287    0.0000 C   0  0
    0.0186   -1.6401    0.0000 C   0  0
    1.4351   -1.1556    0.0000 C   0  0
    1.4351    0.3168    0.0000 N   0  3
   -1.1742    1.6588    0.0000 C   0  0
   -1.0251    3.1871    0.0000 C   0  0
   -0.6446    7.6542    0.0000 C   0  0
   -1.8716    8.5170    0.0000 C   0  0
   -6.5074   14.9640    0.0000 C   0  0
   -7.6379   15.9305    0.0000 C   0  0
   -7.0467   17.3091    0.0000 C   0  0
   -5.5529   17.1729    0.0000 C   0  0
   -5.2208   15.7101    0.0000 S   0  0
   -9.0431   10.9233    0.0000 H   0  0
   -8.8200   13.4134    0.0000 H   0  0
   -4.5072   13.0271    0.0000 H   0  0
   -4.2732    5.9711    0.0000 H   0  0
   -2.2283    4.5330    0.0000 H   0  0
    1.3563    5.7179    0.0000 H   0  0
    0.5383    6.2929    0.0000 H   0  0
    2.3574    2.2782    0.0000 H   0  0
    1.6521    3.8851    0.0000 H   0  0
    0.6052    2.0075    0.0000 H   0  0
    2.3029    1.8232    0.0000 H   0  0
   -1.3442    0.4448    0.0000 H   0  0
   -1.3443   -1.3021    0.0000 H   0  0
    0.7031   -2.3692    0.0000 H   0  0
   -0.9611   -1.8407    0.0000 H   0  0
    2.3389   -0.7276    0.0000 H   0  0
    1.3229   -2.1492    0.0000 H   0  0
   -0.2712    2.0885    0.0000 H   0  0
   -1.9696    2.2649    0.0000 H   0  0
   -1.9247    2.7505    0.0000 H   0  0
   -0.9062    4.1800    0.0000 H   0  0
    0.2626    8.0750    0.0000 H   0  0
   -1.7824    9.5131    0.0000 H   0  0
   -8.6117   15.7033    0.0000 H   0  0
   -7.5587   18.1681    0.0000 H   0  0
   -4.8941   17.9252    0.0000 H   0  0
   -6.2210    8.4119    0.0000 H   0  0
   -7.9462    8.5638    0.0000 H   0  0
   -3.4143   10.6656    0.0000 H   0  0
    0.6340   -0.2817    0.0000 H   0  0
    2.3417   -0.1052    0.0000 H   0  0
  1  2  1  0
  2  3  2  0
  3  4  1  0
  4  5  2  0
  5  6  1  0
  6  7  2  0
  2  7  1  0
  7  8  1  0
  8  9  1  0
  9 10  2  0
  9 11  1  0
 11 12  2  0
 12 13  1  0
 13 14  2  0
 14 15  1  0
 15 16  1  0
 16 17  1  0
 17 18  1  0
 18 19  1  0
 19 20  1  0
 20 21  1  0
 21 22  1  0
 22 23  1  0
 19 23  1  0
 19 24  1  0
 24 25  1  0
 16 25  1  0
 14 26  1  0
 26 27  2  0
 11 27  1  0
  5 28  1  0
 28 29  2  0
 29 30  1  0
 30 31  2  0
 31 32  1  0
 28 32  1  0
  3 33  1  0
  4 34  1  0
  6 35  1  0
 12 36  1  0
 13 37  1  0
 15 38  1  0
 15 39  1  0
 17 40  1  0
 17 41  1  0
 18 42  1  0
 18 43  1  0
 20 44  1  0
 20 45  1  0
 21 46  1  0
 21 47  1  0
 22 48  1  0
 22 49  1  0
 24 50  1  0
 24 51  1  0
 25 52  1  0
 25 53  1  0
 26 54  1  0
 27 55  1  0
 29 56  1  0
 30 57  1  0
 31 58  1  0
  1 59  1  0
  1 60  1  0
  8 61  1  0
 23 62  1  0
 23 63  1  0
M  CHG  1  23   1
M  END
> <Name>
CHEMBL474890

> <ALogP>
2.074

> <Molecular_Weight>
447.61554

> <Num_H_Acceptors>
3

> <Num_H_Donors>
3

> <Num_RotatableBonds>
5

> <FormalCharge>
1

$$$$
CHEMBL1819261
  SciTegic01131515592D

 65 67  0  0  0  0            999 V2000
    3.5146   -3.9793    0.0000 C   0  0
    3.1225   -5.4774    0.0000 C   0  0
    4.3287   -6.4485    0.0000 C   0  0
    1.6532   -5.1718    0.0000 N   0  0
    1.1836   -3.7464    0.0000 C   0  0
    2.1825   -2.6263    0.0000 C   0  0
    1.7138   -1.2033    0.0000 C   0  0
    2.5889    0.0182    0.0000 C   0  0
    1.7138    1.2033    0.0000 N   0  0
    0.2917    0.7475    0.0000 C   0  0
   -1.0028    1.5132    0.0000 C   0  0
   -2.3155    0.7475    0.0000 C   0  0
   -2.3155   -0.7475    0.0000 C   0  0
   -1.0028   -1.5132    0.0000 C   0  0
    0.2917   -0.7475    0.0000 C   0  0
    4.0872    0.0351    0.0000 C   0  0
    4.8532   -1.2555    0.0000 C   0  0
    4.8223    1.3435    0.0000 C   0  0
    3.3353   -1.2973    0.0000 O   0  0
    0.6542   -6.2919    0.0000 C   0  0
    1.1238   -7.7174    0.0000 C   0  0
    2.5923   -8.0232    0.0000 C   0  0
    3.0616   -9.4479    0.0000 C   0  0
    2.0625  -10.5667    0.0000 C   0  0
    2.5292  -11.9932    0.0000 C   0  0
    1.5279  -13.1112    0.0000 C   0  0
    1.9946  -14.5376    0.0000 C   0  0
    3.1689  -14.7843    0.0000 O   0  0
    0.9933  -15.6556    0.0000 N   0  0
    1.4600  -17.0820    0.0000 O   0  0
    0.5940  -10.2608    0.0000 C   0  0
    0.1247   -8.8362    0.0000 C   0  0
    2.7688   -3.3131    0.0000 H   0  0
    3.7310   -3.0030    0.0000 H   0  0
    4.4721   -3.6906    0.0000 H   0  0
    3.4355   -6.4271    0.0000 H   0  0
    4.1253   -7.4276    0.0000 H   0  0
    5.0833   -7.1047    0.0000 H   0  0
    5.2701   -6.1112    0.0000 H   0  0
    0.2045   -3.5428    0.0000 H   0  0
    0.5176   -4.4924    0.0000 H   0  0
    3.1616   -2.8299    0.0000 H   0  0
    2.8485   -1.8803    0.0000 H   0  0
   -0.9997    2.5132    0.0000 H   0  0
   -3.1826    1.2456    0.0000 H   0  0
   -3.1826   -1.2456    0.0000 H   0  0
   -0.9997   -2.5132    0.0000 H   0  0
    5.8531   -1.2441    0.0000 H   0  0
    4.3634   -2.1273    0.0000 H   0  0
    5.3631   -2.1157    0.0000 H   0  0
    5.8222    1.3558    0.0000 H   0  0
    4.3119    2.2035    0.0000 H   0  0
    5.3117    2.2156    0.0000 H   0  0
   -0.3248   -6.0883    0.0000 H   0  0
    0.3409   -5.3423    0.0000 H   0  0
    3.2584   -7.2774    0.0000 H   0  0
    4.0406   -9.6518    0.0000 H   0  0
    3.5078  -12.1988    0.0000 H   0  0
    0.5493  -12.9055    0.0000 H   0  0
   -0.0721  -11.0067    0.0000 H   0  0
   -0.8543   -8.6323    0.0000 H   0  0
    2.0210    2.1549    0.0000 H   0  0
    2.3354   -1.3077    0.0000 H   0  0
    0.0147  -15.4500    0.0000 H   0  0
    0.7928  -17.8269    0.0000 H   0  0
  1  2  1  0
  2  3  1  0
  2  4  1  0
  4  5  1  0
  5  6  1  0
  6  7  1  0
  7  8  2  0
  8  9  1  0
  9 10  1  0
 10 11  2  0
 11 12  1  0
 12 13  2  0
 13 14  1  0
 14 15  2  0
  7 15  1  0
 10 15  1  0
  8 16  1  0
 16 17  1  0
 16 18  1  0
 16 19  1  0
  4 20  1  0
 20 21  1  0
 21 22  2  0
 22 23  1  0
 23 24  2  0
 24 25  1  0
 25 26  2  0
 26 27  1  0
 27 28  2  0
 27 29  1  0
 29 30  1  0
 24 31  1  0
 31 32  2  0
 21 32  1  0
  1 33  1  0
  1 34  1  0
  1 35  1  0
  2 36  1  0
  3 37  1  0
  3 38  1  0
  3 39  1  0
  5 40  1  0
  5 41  1  0
  6 42  1  0
  6 43  1  0
 11 44  1  0
 12 45  1  0
 13 46  1  0
 14 47  1  0
 17 48  1  0
 17 49  1  0
 17 50  1  0
 18 51  1  0
 18 52  1  0
 18 53  1  0
 20 54  1  0
 20 55  1  0
 22 56  1  0
 23 57  1  0
 25 58  1  0
 26 59  1  0
 31 60  1  0
 32 61  1  0
  9 62  1  0
 19 63  1  0
 29 64  1  0
 30 65  1  0
M  STY  1   1 DAT
M  SAL   1  1   9
M  SDT   1 MRV_IMPLICIT_H
M  SDD   1     0.0000    0.0000    DR    ALL  0       0
M  SED   1 IMPL_H1
M  END
> <Name>
CHEMBL1819261

> <ALogP>
4.58

> <Molecular_Weight>
435.55852

> <Num_H_Acceptors>
4

> <Num_H_Donors>
4

> <Num_RotatableBonds>
9

> <FormalCharge>
0

$$$$
CHEMBL1095451
  SciTegic01131515592D

 57 60  0  0  0  0            999 V2000
    6.4433   -1.8435    0.0000 C   0  0
    4.9531   -1.9978    0.0000 C   0  0
    4.2010   -3.2956    0.0000 C   0  0
    2.7343   -2.9815    0.0000 N   0  0
    2.5987   -1.5004    0.0000 C   0  0
    1.2990   -0.7500    0.0000 C   0  0
    1.2990    0.7500    0.0000 C   0  0
    0.0000    1.5000    0.0000 C   0  0
   -1.2990    0.7500    0.0000 C   0  0
   -1.2990   -0.7500    0.0000 C   0  0
   -2.5972   -1.5031    0.0000 C   0  0
   -2.5951   -3.0039    0.0000 C   0  0
   -3.8933   -3.7570    0.0000 C   0  0
   -4.9336   -3.1588    0.0000 O   0  0
   -3.8912   -5.2578    0.0000 N   0  0
   -5.1894   -6.0109    0.0000 O   0  0
    0.0000   -1.5000    0.0000 C   0  0
    3.9511   -0.8815    0.0000 N   0  0
    4.2537    0.5858    0.0000 C   0  0
    5.6779    1.0591    0.0000 C   0  0
    5.9811    2.5290    0.0000 C   0  0
    4.8604    3.5259    0.0000 C   0  0
    5.1634    4.9950    0.0000 C   0  0
    6.5871    5.4671    0.0000 C   0  0
    7.7079    4.4702    0.0000 C   0  0
    7.4049    3.0011    0.0000 C   0  0
    4.8092   -4.6676    0.0000 C   0  0
    6.2798   -4.9368    0.0000 C   0  0
    6.7829   -6.3499    0.0000 C   0  0
    5.8106   -7.4921    0.0000 C   0  0
    4.3352   -7.2212    0.0000 C   0  0
    3.8322   -5.8080    0.0000 C   0  0
    7.0304   -2.6531    0.0000 H   0  0
    6.8512   -0.9305    0.0000 H   0  0
    7.4380   -1.7401    0.0000 H   0  0
    2.1651    1.2500    0.0000 H   0  0
    0.0000    2.5000    0.0000 H   0  0
   -2.1651    1.2500    0.0000 H   0  0
   -3.4641   -1.0046    0.0000 H   0  0
   -1.7282   -3.5024    0.0000 H   0  0
    0.0000   -2.5000    0.0000 H   0  0
    3.5063    1.2502    0.0000 H   0  0
    3.3046    0.2709    0.0000 H   0  0
    6.4253    0.3947    0.0000 H   0  0
    6.6271    1.3740    0.0000 H   0  0
    3.9112    3.2112    0.0000 H   0  0
    4.4162    5.6597    0.0000 H   0  0
    6.7892    6.4465    0.0000 H   0  0
    8.6571    4.7849    0.0000 H   0  0
    8.1521    2.3365    0.0000 H   0  0
    6.9278   -4.1751    0.0000 H   0  0
    7.7664   -6.5305    0.0000 H   0  0
    6.1459   -8.4342    0.0000 H   0  0
    3.6870   -7.9827    0.0000 H   0  0
    2.8489   -5.6259    0.0000 H   0  0
   -3.0243   -5.7563    0.0000 H   0  0
   -5.1879   -7.0109    0.0000 H   0  0
  1  2  1  0
  2  3  2  0
  3  4  1  0
  4  5  2  0
  5  6  1  0
  6  7  2  0
  7  8  1  0
  8  9  2  0
  9 10  1  0
 10 11  1  0
 11 12  2  0
 12 13  1  0
 13 14  2  0
 13 15  1  0
 15 16  1  0
 10 17  2  0
  6 17  1  0
  5 18  1  0
  2 18  1  0
 18 19  1  0
 19 20  1  0
 20 21  1  0
 21 22  2  0
 22 23  1  0
 23 24  2  0
 24 25  1  0
 25 26  2  0
 21 26  1  0
  3 27  1  0
 27 28  2  0
 28 29  1  0
 29 30  2  0
 30 31  1  0
 31 32  2  0
 27 32  1  0
  1 33  1  0
  1 34  1  0
  1 35  1  0
  7 36  1  0
  8 37  1  0
  9 38  1  0
 11 39  1  0
 12 40  1  0
 17 41  1  0
 19 42  1  0
 19 43  1  0
 20 44  1  0
 20 45  1  0
 22 46  1  0
 23 47  1  0
 24 48  1  0
 25 49  1  0
 26 50  1  0
 28 51  1  0
 29 52  1  0
 30 53  1  0
 31 54  1  0
 32 55  1  0
 15 56  1  0
 16 57  1  0
M  END
> <Name>
CHEMBL1095451

> <ALogP>
5.327

> <Molecular_Weight>
423.5063

> <Num_H_Acceptors>
3

> <Num_H_Donors>
2

> <Num_RotatableBonds>
7

> <FormalCharge>
0

$$$$
CHEMBL217004
  SciTegic01131515592D

 52 55  0  0  0  0            999 V2000
   12.7880   -1.5654    0.0000 O   0  0
   11.7569   -2.6560    0.0000 N   0  0
   12.1849   -4.0945    0.0000 C   0  0
   13.3521   -4.3729    0.0000 O   0  0
   11.1555   -5.1832    0.0000 C   0  0
   11.4286   -6.6581    0.0000 C   0  0
   10.1102   -7.3736    0.0000 C   0  0
    9.0477   -6.3396    0.0000 C   0  0
    9.6684   -4.9871    0.0000 S   0  0
    7.5552   -6.4965    0.0000 C   0  0
    6.8052   -7.7956    0.0000 C   0  0
    5.3380   -7.4837    0.0000 C   0  0
    5.2002   -6.0029    0.0000 N   0  0
    3.9005   -5.2525    0.0000 C   0  0
    3.8995   -3.7516    0.0000 C   0  0
    2.5997   -3.0012    0.0000 N   0  3
    2.5988   -1.5004    0.0000 C   0  0
    1.2990   -0.7500    0.0000 C   0  0
    1.2990    0.7500    0.0000 C   0  0
    0.0000    1.5000    0.0000 C   0  0
   -1.2990    0.7500    0.0000 C   0  0
   -1.2990   -0.7500    0.0000 C   0  0
    0.0000   -1.5000    0.0000 C   0  0
   -2.5987    1.5004    0.0000 C   0  0
   -2.6012    3.0004    0.0000 C   0  0
   -3.9015    3.7484    0.0000 C   0  0
   -5.1993    2.9963    0.0000 C   0  0
   -5.1969    1.4963    0.0000 C   0  0
   -3.8967    0.7484    0.0000 N   0  0
    6.5515   -5.3818    0.0000 N   0  0
   12.3310   -7.0889    0.0000 H   0  0
    9.9733   -8.3642    0.0000 H   0  0
    7.2120   -8.7091    0.0000 H   0  0
    4.5909   -8.1484    0.0000 H   0  0
    3.0346   -5.7527    0.0000 H   0  0
    3.9006   -6.2525    0.0000 H   0  0
    4.7654   -3.2514    0.0000 H   0  0
    4.7658   -4.2512    0.0000 H   0  0
    3.4647   -1.0001    0.0000 H   0  0
    2.5986   -0.5004    0.0000 H   0  0
    2.1651    1.2500    0.0000 H   0  0
    0.0000    2.5000    0.0000 H   0  0
   -2.1651   -1.2500    0.0000 H   0  0
    0.0000   -2.5000    0.0000 H   0  0
   -1.7360    3.5018    0.0000 H   0  0
   -3.9030    4.7484    0.0000 H   0  0
   -6.0661    3.4949    0.0000 H   0  0
   -6.0621    0.9949    0.0000 H   0  0
   12.5028   -0.6070    0.0000 H   0  0
   10.7842   -2.4240    0.0000 H   0  0
    1.7339   -3.5015    0.0000 H   0  0
    2.5999   -4.0012    0.0000 H   0  0
  1  2  1  0
  2  3  1  0
  3  4  2  0
  3  5  1  0
  5  6  2  0
  6  7  1  0
  7  8  2  0
  8  9  1  0
  5  9  1  0
  8 10  1  0
 10 11  1  0
 11 12  2  0
 12 13  1  0
 13 14  1  0
 14 15  1  0
 15 16  1  0
 16 17  1  0
 17 18  1  0
 18 19  2  0
 19 20  1  0
 20 21  2  0
 21 22  1  0
 22 23  2  0
 18 23  1  0
 21 24  1  0
 24 25  2  0
 25 26  1  0
 26 27  2  0
 27 28  1  0
 28 29  2  0
 24 29  1  0
 13 30  1  0
 10 30  2  0
  6 31  1  0
  7 32  1  0
 11 33  1  0
 12 34  1  0
 14 35  1  0
 14 36  1  0
 15 37  1  0
 15 38  1  0
 17 39  1  0
 17 40  1  0
 19 41  1  0
 20 42  1  0
 22 43  1  0
 23 44  1  0
 25 45  1  0
 26 46  1  0
 27 47  1  0
 28 48  1  0
  1 49  1  0
  2 50  1  0
 16 51  1  0
 16 52  1  0
M  CHG  1  16   1
M  END
> <Name>
CHEMBL217004

> <ALogP>
2.438

> <Molecular_Weight>
420.50738

> <Num_H_Acceptors>
4

> <Num_H_Donors>
3

> <Num_RotatableBonds>
8

> <FormalCharge>
1

$$$$
CHEMBL2022825
  SciTegic01131515592D

 72 75  0  0  1  0            999 V2000
   10.1179  -12.1744    0.0000 O   0  0
    9.0776  -12.7726    0.0000 C   0  0
    7.7794  -12.0195    0.0000 N   0  0
    7.7815  -10.5187    0.0000 C   0  0  1  0  0  0
    6.4833   -9.7656    0.0000 C   0  0
    6.4855   -8.2648    0.0000 C   0  0
    5.1873   -7.5117    0.0000 C   0  0
    5.1894   -6.0109    0.0000 C   0  0
    3.8912   -5.2578    0.0000 C   0  0
    3.8933   -3.7570    0.0000 C   0  0
    2.5951   -3.0039    0.0000 S   0  0
    2.5973   -1.5031    0.0000 S   0  0
    1.2990   -0.7500    0.0000 C   0  0
    1.2990    0.7500    0.0000 C   0  0
    0.0000    1.5000    0.0000 C   0  0
   -1.2990    0.7500    0.0000 C   0  0
   -1.2990   -0.7500    0.0000 C   0  0
    0.0000   -1.5000    0.0000 N   0  0
    6.4538  -11.2789    0.0000 C   0  0
    6.4505  -12.2789    0.0000 O   0  0
    5.1563  -10.5246    0.0000 N   0  0
    3.8538  -11.2703    0.0000 C   0  0
    2.5035  -10.6471    0.0000 N   0  0
    1.4980  -11.7602    0.0000 C   0  0
    2.2459  -13.0604    0.0000 C   0  0
    3.7136  -12.7509    0.0000 S   0  0
    0.0057  -11.6010    0.0000 C   0  0
   -0.7005  -10.2833    0.0000 C   0  0
   -2.1998  -10.2368    0.0000 C   0  0
   -2.9897  -11.5120    0.0000 C   0  0
   -2.2803  -12.8336    0.0000 C   0  0
   -0.7811  -12.8801    0.0000 C   0  0
    9.0755  -14.2734    0.0000 O   0  0
   10.3737  -15.0265    0.0000 C   0  0
   10.3716  -16.5273    0.0000 C   0  0
   11.6695  -17.2792    0.0000 C   0  0
   11.6674  -18.7792    0.0000 C   0  0
   10.3673  -19.5273    0.0000 C   0  0
    9.0693  -18.7755    0.0000 C   0  0
    9.0714  -17.2755    0.0000 C   0  0
    8.6484  -10.0202    0.0000 H   0  0
    5.6181   -9.2643    0.0000 H   0  0
    5.6164  -10.2641    0.0000 H   0  0
    6.4874   -7.2648    0.0000 H   0  0
    7.3524   -7.7663    0.0000 H   0  0
    4.3220   -7.0104    0.0000 H   0  0
    4.3204   -8.0102    0.0000 H   0  0
    5.1913   -5.0109    0.0000 H   0  0
    6.0563   -5.5124    0.0000 H   0  0
    3.0260   -4.7564    0.0000 H   0  0
    3.0243   -5.7563    0.0000 H   0  0
    3.8952   -2.7570    0.0000 H   0  0
    4.7602   -3.2585    0.0000 H   0  0
    2.1651    1.2500    0.0000 H   0  0
    0.0000    2.5000    0.0000 H   0  0
   -2.1651    1.2500    0.0000 H   0  0
   -2.1651   -1.2500    0.0000 H   0  0
    1.8377  -13.9733    0.0000 H   0  0
   -0.1737   -9.4333    0.0000 H   0  0
   -2.6727   -9.3557    0.0000 H   0  0
   -3.9892  -11.4810    0.0000 H   0  0
   -2.8069  -13.6837    0.0000 H   0  0
   -0.3067  -13.7605    0.0000 H   0  0
   10.3756  -14.0265    0.0000 H   0  0
   11.2406  -14.5280    0.0000 H   0  0
   12.5363  -16.7804    0.0000 H   0  0
   12.5327  -19.2804    0.0000 H   0  0
   10.3659  -20.5273    0.0000 H   0  0
    8.2026  -19.2743    0.0000 H   0  0
    8.2061  -16.7743    0.0000 H   0  0
    6.9125  -12.5180    0.0000 H   0  0
    5.1597   -9.5246    0.0000 H   0  0
  1  2  2  0
  2  3  1  0
  4  3  1  0
  4  5  1  0
  5  6  1  0
  6  7  1  0
  7  8  1  0
  8  9  1  0
  9 10  1  0
 10 11  1  0
 11 12  1  0
 12 13  1  0
 13 14  2  0
 14 15  1  0
 15 16  2  0
 16 17  1  0
 17 18  2  0
 13 18  1  0
  4 19  1  0
 19 20  2  0
 19 21  1  0
 21 22  1  0
 22 23  2  0
 23 24  1  0
 24 25  2  0
 25 26  1  0
 22 26  1  0
 24 27  1  0
 27 28  2  0
 28 29  1  0
 29 30  2  0
 30 31  1  0
 31 32  2  0
 27 32  1  0
  2 33  1  0
 33 34  1  0
 34 35  1  0
 35 36  2  0
 36 37  1  0
 37 38  2  0
 38 39  1  0
 39 40  2  0
 35 40  1  0
  4 41  1  1
  5 42  1  0
  5 43  1  0
  6 44  1  0
  6 45  1  0
  7 46  1  0
  7 47  1  0
  8 48  1  0
  8 49  1  0
  9 50  1  0
  9 51  1  0
 10 52  1  0
 10 53  1  0
 14 54  1  0
 15 55  1  0
 16 56  1  0
 17 57  1  0
 25 58  1  0
 28 59  1  0
 29 60  1  0
 30 61  1  0
 31 62  1  0
 32 63  1  0
 34 64  1  0
 34 65  1  0
 36 66  1  0
 37 67  1  0
 38 68  1  0
 39 69  1  0
 40 70  1  0
  3 71  1  0
 21 72  1  0
M  END
> <Name>
CHEMBL2022825

> <ALogP>
7.496

> <Molecular_Weight>
592.79507

> <Num_H_Acceptors>
7

> <Num_H_Donors>
2

> <Num_RotatableBonds>
16

> <FormalCharge>
0

$$$$
CHEMBL216249
  SciTegic01131515592D

 38 40  0  0  0  0            999 V2000
   -3.7518   -9.5994    0.0000 O   0  0
   -2.2913   -9.2538    0.0000 N   0  0
   -1.2611  -10.3452    0.0000 C   0  0
   -1.6053  -11.4948    0.0000 O   0  0
    0.1969  -10.0002    0.0000 C   0  0
    1.3364  -10.9757    0.0000 C   0  0
    2.6163  -10.1935    0.0000 C   0  0
    2.2541   -8.7559    0.0000 C   0  0
    0.7726   -8.6151    0.0000 S   0  0
    3.1379   -7.5431    0.0000 C   0  0
    4.6379   -7.5452    0.0000 C   0  0
    5.1035   -6.1193    0.0000 C   0  0
    3.8912   -5.2578    0.0000 N   0  0
    3.8933   -3.7570    0.0000 C   0  0
    2.5951   -3.0039    0.0000 C   0  0
    1.5548   -3.6021    0.0000 O   0  0
    2.5973   -1.5031    0.0000 N   0  0
    1.2990   -0.7500    0.0000 C   0  0
    1.2990    0.7500    0.0000 C   0  0
    0.0000    1.5000    0.0000 C   0  0
   -1.2990    0.7500    0.0000 C   0  0
   -1.2990   -0.7500    0.0000 C   0  0
   -2.3383   -1.3500    0.0000 Cl  0  0
    0.0000   -1.5000    0.0000 C   0  0
    2.6764   -6.1158    0.0000 N   0  0
    1.2567  -11.9726    0.0000 H   0  0
    3.5420  -10.5716    0.0000 H   0  0
    5.2246   -8.3550    0.0000 H   0  0
    6.0531   -5.8059    0.0000 H   0  0
    3.8952   -2.7570    0.0000 H   0  0
    4.7602   -3.2585    0.0000 H   0  0
    2.1651    1.2500    0.0000 H   0  0
    0.0000    2.5000    0.0000 H   0  0
   -2.1651    1.2500    0.0000 H   0  0
    0.0000   -2.5000    0.0000 H   0  0
   -4.4382   -8.8723    0.0000 H   0  0
   -2.0045   -8.2959    0.0000 H   0  0
    3.4642   -1.0046    0.0000 H   0  0
  1  2  1  0
  2  3  1  0
  3  4  2  0
  3  5  1  0
  5  6  2  0
  6  7  1  0
  7  8  2  0
  8  9  1  0
  5  9  1  0
  8 10  1  0
 10 11  1  0
 11 12  2  0
 12 13  1  0
 13 14  1  0
 14 15  1  0
 15 16  2  0
 15 17  1  0
 17 18  1  0
 18 19  2  0
 19 20  1  0
 20 21  2  0
 21 22  1  0
 22 23  1  0
 22 24  2  0
 18 24  1  0
 13 25  1  0
 10 25  2  0
  6 26  1  0
  7 27  1  0
 11 28  1  0
 12 29  1  0
 14 30  1  0
 14 31  1  0
 19 32  1  0
 20 33  1  0
 21 34  1  0
 24 35  1  0
  1 36  1  0
  2 37  1  0
 17 38  1  0
M  END
> <Name>
CHEMBL216249

> <ALogP>
2.987

> <Molecular_Weight>
376.81742

> <Num_H_Acceptors>
4

> <Num_H_Donors>
3

> <Num_RotatableBonds>
5

> <FormalCharge>
0

$$$$
CHEMBL2047681
  SciTegic01131515592D

 35 35  0  0  0  0            999 V2000
    2.5951   -3.0039    0.0000 C   0  0
    2.5973   -1.5031    0.0000 O   0  0
    1.2990   -0.7500    0.0000 C   0  0
    1.2990    0.7500    0.0000 C   0  0
    0.0000    1.5000    0.0000 C   0  0
   -1.2990    0.7500    0.0000 C   0  0
   -2.5988    1.5004    0.0000 C   0  0
   -2.5998    3.0012    0.0000 C   0  0
   -3.8987    3.7531    0.0000 N   0  0
   -5.1997    3.0049    0.0000 N   0  0
   -1.3010    3.7533    0.0000 C   0  0
   -0.2612    3.1543    0.0000 O   0  0
   -1.3019    5.2541    0.0000 N   0  0
   -0.0031    6.0062    0.0000 C   0  0
   -0.0041    7.5070    0.0000 C   0  0
    1.2947    8.2591    0.0000 S   0  0
   -1.2990   -0.7500    0.0000 C   0  0
    0.0000   -1.5000    0.0000 C   0  0
    0.0000   -2.7000    0.0000 Br  0  0
    3.4601   -3.5057    0.0000 H   0  0
    1.7282   -3.5024    0.0000 H   0  0
    2.5932   -4.0039    0.0000 H   0  0
    2.1651    1.2500    0.0000 H   0  0
    0.0000    2.5000    0.0000 H   0  0
   -3.4647    1.0001    0.0000 H   0  0
   -3.4651    2.0000    0.0000 H   0  0
    0.8634    5.5070    0.0000 H   0  0
   -0.0020    5.0062    0.0000 H   0  0
   -0.8706    8.0062    0.0000 H   0  0
   -0.0052    8.5070    0.0000 H   0  0
   -2.1651   -1.2500    0.0000 H   0  0
   -6.0652    3.5059    0.0000 H   0  0
   -5.2012    2.0049    0.0000 H   0  0
   -2.1684    5.7533    0.0000 H   0  0
    1.2941    9.2591    0.0000 H   0  0
  1  2  1  0
  2  3  1  0
  3  4  2  0
  4  5  1  0
  5  6  2  0
  6  7  1  0
  7  8  1  0
  8  9  2  0
  9 10  1  0
  8 11  1  0
 11 12  2  0
 11 13  1  0
 13 14  1  0
 14 15  1  0
 15 16  1  0
  6 17  1  0
 17 18  2  0
  3 18  1  0
 18 19  1  0
  1 20  1  0
  1 21  1  0
  1 22  1  0
  4 23  1  0
  5 24  1  0
  7 25  1  0
  7 26  1  0
 14 27  1  0
 14 28  1  0
 15 29  1  0
 15 30  1  0
 17 31  1  0
 10 32  1  0
 10 33  1  0
 13 34  1  0
 16 35  1  0
M  END
> <Name>
CHEMBL2047681

> <ALogP>
1.675

> <Molecular_Weight>
346.24334

> <Num_H_Acceptors>
5

> <Num_H_Donors>
3

> <Num_RotatableBonds>
6

> <FormalCharge>
0

$$$$
CHEMBL496923
  SciTegic01131515592D

 34 35  0  0  1  0            999 V2000
    2.5983   -3.0012    0.0000 C   0  0
    2.5988   -1.5004    0.0000 C   0  0  1  0  0  0
    3.8990   -0.7508    0.0000 N   0  0
    5.1988   -1.5012    0.0000 C   0  0
    5.1984   -2.7012    0.0000 O   0  0
    6.4990   -0.7516    0.0000 C   0  0
    7.8513   -1.3707    0.0000 C   0  0
    8.8534   -0.2546    0.0000 C   0  0
    8.1015    1.0434    0.0000 C   0  0
    6.6348    0.7294    0.0000 S   0  0
    8.7061    2.4142    0.0000 C   0  0
    9.8992    2.5435    0.0000 O   0  0
    7.8205    3.6259    0.0000 N   0  0
    8.4261    4.9991    0.0000 O   0  0
    1.2990   -0.7500    0.0000 C   0  0
    1.2990    0.7500    0.0000 C   0  0
    0.0000    1.5000    0.0000 C   0  0
   -1.2990    0.7500    0.0000 C   0  0
   -1.2990   -0.7500    0.0000 C   0  0
    0.0000   -1.5000    0.0000 C   0  0
    1.7325   -3.5014    0.0000 H   0  0
    3.4643   -3.5012    0.0000 H   0  0
    2.5985   -4.0012    0.0000 H   0  0
    3.4646   -2.0008    0.0000 H   0  0
    8.0548   -2.3498    0.0000 H   0  0
    9.8480   -0.3577    0.0000 H   0  0
    2.1651    1.2500    0.0000 H   0  0
    0.0000    2.5000    0.0000 H   0  0
   -2.1651    1.2500    0.0000 H   0  0
   -2.1651   -1.2500    0.0000 H   0  0
    0.0000   -2.5000    0.0000 H   0  0
    3.8993    0.2492    0.0000 H   0  0
    6.8263    3.5182    0.0000 H   0  0
    7.8360    5.8064    0.0000 H   0  0
  2  1  1  0
  2  3  1  0
  3  4  1  0
  4  5  2  0
  4  6  1  0
  6  7  2  0
  7  8  1  0
  8  9  2  0
  9 10  1  0
  6 10  1  0
  9 11  1  0
 11 12  2  0
 11 13  1  0
 13 14  1  0
  2 15  1  0
 15 16  2  0
 16 17  1  0
 17 18  2  0
 18 19  1  0
 19 20  2  0
 15 20  1  0
  1 21  1  0
  1 22  1  0
  1 23  1  0
  2 24  1  1
  7 25  1  0
  8 26  1  0
 16 27  1  0
 17 28  1  0
 18 29  1  0
 19 30  1  0
 20 31  1  0
  3 32  1  0
 13 33  1  0
 14 34  1  0
M  END
> <Name>
CHEMBL496923

> <ALogP>
2.258

> <Molecular_Weight>
290.33756

> <Num_H_Acceptors>
3

> <Num_H_Donors>
3

> <Num_RotatableBonds>
4

> <FormalCharge>
0

$$$$
CHEMBL1834462
  SciTegic01131515592D

 32 34  0  0  0  0            999 V2000
    3.8933   -3.7570    0.0000 O   0  0
    2.5951   -3.0039    0.0000 N   0  0
    2.5973   -1.5031    0.0000 C   0  0
    3.6375   -0.9049    0.0000 O   0  0
    1.2990   -0.7500    0.0000 C   0  0
    1.2990    0.7500    0.0000 C   0  0
    0.0000    1.5000    0.0000 N   0  0
   -1.2990    0.7500    0.0000 C   0  0
   -2.6003    1.4977    0.0000 N   0  0
   -3.8990    0.7455    0.0000 C   0  0
   -5.2526    1.3618    0.0000 O   0  0
   -6.2524    0.2436    0.0000 C   0  0
   -5.4979   -1.0529    0.0000 N   0  0
   -4.0317   -0.7359    0.0000 N   0  0
   -7.7454    0.3952    0.0000 C   0  0
   -8.4584    1.7093    0.0000 C   0  0
   -9.9579    1.7482    0.0000 C   0  0
  -10.7413    0.4691    0.0000 C   0  0
  -10.0252   -0.8490    0.0000 C   0  0
   -8.5257   -0.8879    0.0000 C   0  0
   -1.2990   -0.7500    0.0000 N   0  0
    0.0000   -1.5000    0.0000 C   0  0
    2.1651    1.2500    0.0000 H   0  0
   -7.9358    2.5620    0.0000 H   0  0
  -10.4352    2.6269    0.0000 H   0  0
  -11.7409    0.4950    0.0000 H   0  0
  -10.5475   -1.7017    0.0000 H   0  0
   -8.0469   -1.7658    0.0000 H   0  0
    0.0000   -2.5000    0.0000 H   0  0
    3.8919   -4.7570    0.0000 H   0  0
    1.7282   -3.5024    0.0000 H   0  0
   -2.6021    2.4977    0.0000 H   0  0
  1  2  1  0
  2  3  1  0
  3  4  2  0
  3  5  1  0
  5  6  2  0
  6  7  1  0
  7  8  2  0
  8  9  1  0
  9 10  1  0
 10 11  1  0
 11 12  1  0
 12 13  2  0
 13 14  1  0
 10 14  2  0
 12 15  1  0
 15 16  2  0
 16 17  1  0
 17 18  2  0
 18 19  1  0
 19 20  2  0
 15 20  1  0
  8 21  1  0
 21 22  2  0
  5 22  1  0
  6 23  1  0
 16 24  1  0
 17 25  1  0
 18 26  1  0
 19 27  1  0
 20 28  1  0
 22 29  1  0
  1 30  1  0
  2 31  1  0
  9 32  1  0
M  END
> <Name>
CHEMBL1834462

> <ALogP>
0.34

> <Molecular_Weight>
298.2569

> <Num_H_Acceptors>
7

> <Num_H_Donors>
3

> <Num_RotatableBonds>
4

> <FormalCharge>
0

$$$$
CHEMBL2012817
  SciTegic01131515592D

 85 88  0  0  1  0            999 V2000
  -11.4068   -8.0378    0.0000 C   0  0
   -9.9295   -7.7730    0.0000 C   0  0
   -9.4193   -6.3616    0.0000 C   0  0
  -10.1930   -5.4443    0.0000 O   0  0
   -7.9420   -6.0967    0.0000 C   0  0
   -7.4318   -4.6853    0.0000 C   0  0
   -5.9546   -4.4205    0.0000 C   0  0
   -5.4444   -3.0090    0.0000 C   0  0
   -3.9671   -2.7442    0.0000 C   0  0
   -3.4978   -1.3401    0.0000 C   0  0  2  0  0  0
   -2.1804   -2.0896    0.0000 N   0  0
   -0.8631   -1.3401    0.0000 C   0  0
   -0.8586   -0.1401    0.0000 O   0  0
    0.4315   -2.0896    0.0000 C   0  0  1  0  0  0
   -0.8710   -2.7927    0.0000 C   0  0
    1.7489   -1.3401    0.0000 N   0  0
    3.2025   -1.7943    0.0000 N   0  0
    4.0429   -0.5905    0.0000 N   0  0
    3.2025    0.5905    0.0000 C   0  0
    1.7489    0.1363    0.0000 C   0  0
    0.4315    0.8858    0.0000 C   0  0  2  0  0  0
   -0.8348    1.6531    0.0000 C   0  0
   -2.1676    0.9633    0.0000 C   0  0
   -3.4320    1.7718    0.0000 C   0  0
   -2.2361   -0.5359    0.0000 C   0  0
    0.4315    2.3848    0.0000 N   0  0
   -0.8631    3.1344    0.0000 C   0  0
   -0.8586    4.3344    0.0000 O   0  0
   -2.1804    2.3848    0.0000 C   0  0  2  0  0  0
   -2.6484    3.7896    0.0000 C   0  0
   -4.1108    4.1271    0.0000 C   0  0
   -5.2253    3.1392    0.0000 C   0  0
   -6.4856    3.9019    0.0000 N   0  0
   -6.1622    5.3598    0.0000 C   0  0
   -7.0435    6.5785    0.0000 C   0  0
   -6.4014    7.9559    0.0000 C   0  0
   -4.9127    8.0931    0.0000 C   0  0
   -4.0298    6.8562    0.0000 C   0  0
   -4.6735    5.4969    0.0000 C   0  0
   -2.1804    0.8858    0.0000 N   0  0
   -3.4978    0.1363    0.0000 C   0  0
   -4.5351    0.7396    0.0000 O   0  0
  -11.7467   -8.9783    0.0000 H   0  0
  -12.3912   -8.2138    0.0000 H   0  0
  -12.0515   -7.2734    0.0000 H   0  0
   -8.9451   -7.5970    0.0000 H   0  0
   -9.2848   -8.5374    0.0000 H   0  0
   -8.2815   -7.0373    0.0000 H   0  0
   -7.2973   -6.8611    0.0000 H   0  0
   -7.0923   -3.7447    0.0000 H   0  0
   -8.0766   -3.9209    0.0000 H   0  0
   -4.9702   -4.2445    0.0000 H   0  0
   -5.3098   -5.1849    0.0000 H   0  0
   -5.1049   -2.0684    0.0000 H   0  0
   -6.0891   -2.2446    0.0000 H   0  0
   -4.3066   -3.6848    0.0000 H   0  0
   -3.3224   -3.5086    0.0000 H   0  0
   -4.3536   -0.8228    0.0000 H   0  0
    1.3079   -2.5713    0.0000 H   0  0
   -1.7354   -2.2899    0.0000 H   0  0
   -1.7388   -3.2897    0.0000 H   0  0
   -0.8747   -3.7927    0.0000 H   0  0
    3.5216    1.5383    0.0000 H   0  0
    0.4589   -0.1138    0.0000 H   0  0
   -0.7891    2.6521    0.0000 H   0  0
   -1.6770    2.1923    0.0000 H   0  0
   -2.1220    1.9622    0.0000 H   0  0
   -4.3201    1.3122    0.0000 H   0  0
   -4.2742    2.3110    0.0000 H   0  0
   -3.3864    2.7708    0.0000 H   0  0
   -1.3942   -1.0755    0.0000 H   0  0
   -2.2823   -1.5349    0.0000 H   0  0
   -3.1242   -0.9956    0.0000 H   0  0
   -3.0357    1.8667    0.0000 H   0  0
   -2.9410    4.7458    0.0000 H   0  0
   -1.9667    4.5212    0.0000 H   0  0
   -5.1349    2.1432    0.0000 H   0  0
   -8.0390    6.4837    0.0000 H   0  0
   -6.9770    8.7737    0.0000 H   0  0
   -4.4963    9.0023    0.0000 H   0  0
   -3.0337    6.9449    0.0000 H   0  0
   -2.1804   -3.0896    0.0000 H   0  0
    1.2979    2.8843    0.0000 H   0  0
   -7.4051    3.5086    0.0000 H   0  0
   -1.3160    0.3831    0.0000 H   0  0
  1  2  1  0
  2  3  1  0
  3  4  2  0
  3  5  1  0
  5  6  1  0
  6  7  1  0
  7  8  1  0
  8  9  1  0
 10  9  1  0
 10 11  1  0
 11 12  1  0
 12 13  2  0
 12 14  1  0
 14 15  1  0
 14 16  1  0
 16 17  1  0
 17 18  2  0
 18 19  1  0
 19 20  2  0
 16 20  1  0
 20 21  1  0
 21 22  1  0
 22 23  1  0
 23 24  1  0
 23 25  1  0
 21 26  1  0
 26 27  1  0
 27 28  2  0
 27 29  1  0
 29 30  1  0
 30 31  1  0
 31 32  2  0
 32 33  1  0
 33 34  1  0
 34 35  2  0
 35 36  1  0
 36 37  2  0
 37 38  1  0
 38 39  2  0
 31 39  1  0
 34 39  1  0
 29 40  1  0
 40 41  1  0
 10 41  1  0
 41 42  2  0
  1 43  1  0
  1 44  1  0
  1 45  1  0
  2 46  1  0
  2 47  1  0
  5 48  1  0
  5 49  1  0
  6 50  1  0
  6 51  1  0
  7 52  1  0
  7 53  1  0
  8 54  1  0
  8 55  1  0
  9 56  1  0
  9 57  1  0
 10 58  1  6
 14 59  1  1
 15 60  1  0
 15 61  1  0
 15 62  1  0
 19 63  1  0
 21 64  1  1
 22 65  1  0
 22 66  1  0
 23 67  1  0
 24 68  1  0
 24 69  1  0
 24 70  1  0
 25 71  1  0
 25 72  1  0
 25 73  1  0
 29 74  1  6
 30 75  1  0
 30 76  1  0
 32 77  1  0
 35 78  1  0
 36 79  1  0
 37 80  1  0
 38 81  1  0
 11 82  1  0
 26 83  1  0
 33 84  1  0
 40 85  1  0
M  STY  1   1 DAT
M  SAL   1  1  33
M  SDT   1 MRV_IMPLICIT_H
M  SDD   1     0.0000    0.0000    DR    ALL  0       0
M  SED   1 IMPL_H1
M  END
> <Name>
CHEMBL2012817

> <ALogP>
3.879

> <Molecular_Weight>
577.71761

> <Num_H_Acceptors>
6

> <Num_H_Donors>
4

> <Num_RotatableBonds>
11

> <FormalCharge>
0

$$$$
CHEMBL407560
  SciTegic01131515592D

 42 44  0  0  0  0            999 V2000
    3.8933   -3.7570    0.0000 C   0  0
    2.5951   -3.0039    0.0000 C   0  0
    1.5548   -3.6021    0.0000 O   0  0
    2.5973   -1.5031    0.0000 N   0  0
    1.2990   -0.7500    0.0000 C   0  0
    1.2990    0.7500    0.0000 C   0  0
    0.0000    1.5000    0.0000 C   0  0
   -1.2990    0.7500    0.0000 C   0  0
   -1.2990   -0.7500    0.0000 C   0  0
    0.0000   -1.5000    0.0000 C   0  0
   -2.6003    1.4977    0.0000 C   0  0
   -2.6024    2.6977    0.0000 O   0  0
   -3.8990    0.7455    0.0000 N   0  0
   -5.2003    1.4932    0.0000 C   0  0
   -6.4994    0.7432    0.0000 C   0  0
   -7.7985    1.4932    0.0000 C   0  0
   -7.7985    2.9932    0.0000 C   0  0
   -6.4995    3.7432    0.0000 C   0  0
   -5.2004    2.9933    0.0000 C   0  0
   -3.8992    3.7411    0.0000 N   0  0
   -9.0981    0.7428    0.0000 C   0  0
   -9.2383   -0.7379    0.0000 C   0  0
  -10.7060   -1.0475    0.0000 C   0  0
  -11.4540    0.2528    0.0000 S   0  0
  -10.4486    1.3659    0.0000 C   0  0
    3.8919   -4.7570    0.0000 H   0  0
    4.7586   -4.2584    0.0000 H   0  0
    4.7602   -3.2585    0.0000 H   0  0
    2.1651    1.2500    0.0000 H   0  0
    0.0000    2.5000    0.0000 H   0  0
   -2.1651   -1.2500    0.0000 H   0  0
    0.0000   -2.5000    0.0000 H   0  0
   -6.4994   -0.2568    0.0000 H   0  0
   -8.6646    3.4932    0.0000 H   0  0
   -6.4995    4.7432    0.0000 H   0  0
   -8.4923   -1.4037    0.0000 H   0  0
  -11.1142   -1.9604    0.0000 H   0  0
  -10.6492    2.3456    0.0000 H   0  0
    3.4642   -1.0046    0.0000 H   0  0
   -3.8973   -0.2545    0.0000 H   0  0
   -3.0338    3.2399    0.0000 H   0  0
   -3.8975    4.7411    0.0000 H   0  0
  1  2  1  0
  2  3  2  0
  2  4  1  0
  4  5  1  0
  5  6  2  0
  6  7  1  0
  7  8  2  0
  8  9  1  0
  9 10  2  0
  5 10  1  0
  8 11  1  0
 11 12  2  0
 11 13  1  0
 13 14  1  0
 14 15  2  0
 15 16  1  0
 16 17  2  0
 17 18  1  0
 18 19  2  0
 14 19  1  0
 19 20  1  0
 16 21  1  0
 21 22  1  0
 22 23  2  0
 23 24  1  0
 24 25  1  0
 21 25  2  0
  1 26  1  0
  1 27  1  0
  1 28  1  0
  6 29  1  0
  7 30  1  0
  9 31  1  0
 10 32  1  0
 15 33  1  0
 17 34  1  0
 18 35  1  0
 22 36  1  0
 23 37  1  0
 25 38  1  0
  4 39  1  0
 13 40  1  0
 20 41  1  0
 20 42  1  0
M  END
> <Name>
CHEMBL407560

> <ALogP>
2.168

> <Molecular_Weight>
351.42218

> <Num_H_Acceptors>
3

> <Num_H_Donors>
3

> <Num_RotatableBonds>
4

> <FormalCharge>
0

$$$$
CHEMBL399494
  SciTegic01131515592D

 49 51  0  0  0  0            999 V2000
    9.0990   -0.7525    0.0000 C   0  0
    7.7988   -1.5020    0.0000 C   0  0
    6.4990   -0.7516    0.0000 O   0  0
    5.1988   -1.5012    0.0000 C   0  0
    5.1984   -2.7012    0.0000 O   0  0
    3.8990   -0.7508    0.0000 N   0  0
    2.5988   -1.5004    0.0000 C   0  0
    1.2990   -0.7500    0.0000 C   0  0
    1.2990    0.7500    0.0000 C   0  0
    0.0000    1.5000    0.0000 C   0  0
   -1.2990    0.7500    0.0000 C   0  0
   -1.2990   -0.7500    0.0000 C   0  0
    0.0000   -1.5000    0.0000 C   0  0
   -2.6003    1.4977    0.0000 C   0  0
   -2.6024    2.6977    0.0000 O   0  0
   -3.8990    0.7455    0.0000 N   0  0
   -5.2003    1.4932    0.0000 C   0  0
   -6.4994    0.7432    0.0000 C   0  0
   -7.7985    1.4932    0.0000 C   0  0
   -7.7985    2.9932    0.0000 C   0  0
   -6.4995    3.7432    0.0000 C   0  0
   -5.2004    2.9933    0.0000 C   0  0
   -3.8992    3.7411    0.0000 N   0  0
   -9.0981    0.7428    0.0000 C   0  0
   -9.2383   -0.7379    0.0000 C   0  0
  -10.7060   -1.0475    0.0000 C   0  0
  -11.4540    0.2528    0.0000 C   0  0
  -10.4486    1.3659    0.0000 S   0  0
    9.9650   -1.2525    0.0000 H   0  0
    9.9651   -0.2526    0.0000 H   0  0
    9.0993    0.2475    0.0000 H   0  0
    6.9326   -2.0019    0.0000 H   0  0
    7.7984   -2.5020    0.0000 H   0  0
    3.4646   -2.0008    0.0000 H   0  0
    2.5985   -2.5004    0.0000 H   0  0
    2.1651    1.2500    0.0000 H   0  0
    0.0000    2.5000    0.0000 H   0  0
   -2.1651   -1.2500    0.0000 H   0  0
    0.0000   -2.5000    0.0000 H   0  0
   -6.4994   -0.2568    0.0000 H   0  0
   -8.6646    3.4932    0.0000 H   0  0
   -6.4995    4.7432    0.0000 H   0  0
   -8.4923   -1.4037    0.0000 H   0  0
  -11.1142   -1.9604    0.0000 H   0  0
  -12.4484    0.3588    0.0000 H   0  0
    3.8993    0.2492    0.0000 H   0  0
   -3.8973   -0.2545    0.0000 H   0  0
   -3.0338    3.2399    0.0000 H   0  0
   -3.8975    4.7411    0.0000 H   0  0
  1  2  1  0
  2  3  1  0
  3  4  1  0
  4  5  2  0
  4  6  1  0
  6  7  1  0
  7  8  1  0
  8  9  2  0
  9 10  1  0
 10 11  2  0
 11 12  1  0
 12 13  2  0
  8 13  1  0
 11 14  1  0
 14 15  2  0
 14 16  1  0
 16 17  1  0
 17 18  2  0
 18 19  1  0
 19 20  2  0
 20 21  1  0
 21 22  2  0
 17 22  1  0
 22 23  1  0
 19 24  1  0
 24 25  2  0
 25 26  1  0
 26 27  2  0
 27 28  1  0
 24 28  1  0
  1 29  1  0
  1 30  1  0
  1 31  1  0
  2 32  1  0
  2 33  1  0
  7 34  1  0
  7 35  1  0
  9 36  1  0
 10 37  1  0
 12 38  1  0
 13 39  1  0
 18 40  1  0
 20 41  1  0
 21 42  1  0
 25 43  1  0
 26 44  1  0
 27 45  1  0
  6 46  1  0
 16 47  1  0
 23 48  1  0
 23 49  1  0
M  END
> <Name>
CHEMBL399494

> <ALogP>
3.459

> <Molecular_Weight>
395.47474

> <Num_H_Acceptors>
4

> <Num_H_Donors>
3

> <Num_RotatableBonds>
7

> <FormalCharge>
0

$$$$
CHEMBL470225
  SciTegic01131515592D

 61 63  0  0  0  0            999 V2000
    9.0995   -3.7533    0.0000 C   0  0
    7.7997   -3.0029    0.0000 C   0  0
    7.7988   -1.5020    0.0000 O   0  0
    6.4990   -0.7516    0.0000 P   0  0
    6.4994    0.4484    0.0000 O   0  0
    5.1988   -1.5012    0.0000 C   0  0
    3.8990   -0.7508    0.0000 N   0  3
    2.5988   -1.5004    0.0000 C   0  0
    1.2990   -0.7500    0.0000 C   0  0
    1.2990    0.7500    0.0000 C   0  0
    0.0000    1.5000    0.0000 C   0  0
   -1.2990    0.7500    0.0000 C   0  0
   -1.2990   -0.7500    0.0000 C   0  0
    0.0000   -1.5000    0.0000 C   0  0
   -2.6003    1.4977    0.0000 C   0  0
   -2.6024    2.6977    0.0000 O   0  0
   -3.8990    0.7455    0.0000 N   0  0
   -5.2003    1.4932    0.0000 C   0  0
   -6.4994    0.7432    0.0000 C   0  0
   -7.7985    1.4932    0.0000 C   0  0
   -7.7985    2.9932    0.0000 C   0  0
   -6.4995    3.7432    0.0000 C   0  0
   -5.2004    2.9933    0.0000 C   0  0
   -3.8992    3.7411    0.0000 N   0  0
   -9.0981    0.7428    0.0000 C   0  0
   -9.2383   -0.7379    0.0000 C   0  0
  -10.7060   -1.0475    0.0000 C   0  0
  -11.4540    0.2528    0.0000 C   0  0
  -10.4486    1.3659    0.0000 S   0  0
    7.8232    0.0148    0.0000 O   0  0
    7.8224    1.5156    0.0000 C   0  0
    9.1213    2.2675    0.0000 C   0  0
    9.1001   -4.7533    0.0000 H   0  0
    9.9653   -3.2530    0.0000 H   0  0
    9.9657   -4.2529    0.0000 H   0  0
    6.9338   -3.5031    0.0000 H   0  0
    6.9334   -2.5033    0.0000 H   0  0
    5.1985   -2.5012    0.0000 H   0  0
    4.3327   -2.0011    0.0000 H   0  0
    2.5985   -2.5004    0.0000 H   0  0
    1.7327   -2.0003    0.0000 H   0  0
    2.1651    1.2500    0.0000 H   0  0
    0.0000    2.5000    0.0000 H   0  0
   -2.1651   -1.2500    0.0000 H   0  0
    0.0000   -2.5000    0.0000 H   0  0
   -6.4994   -0.2568    0.0000 H   0  0
   -8.6646    3.4932    0.0000 H   0  0
   -6.4995    4.7432    0.0000 H   0  0
   -8.4923   -1.4037    0.0000 H   0  0
  -11.1142   -1.9604    0.0000 H   0  0
  -12.4484    0.3588    0.0000 H   0  0
    6.9567    1.0151    0.0000 H   0  0
    6.9560    2.0149    0.0000 H   0  0
    9.1208    3.2675    0.0000 H   0  0
    9.9870    2.7681    0.0000 H   0  0
    9.9877    1.7682    0.0000 H   0  0
    3.8993    0.2492    0.0000 H   0  0
    3.0332   -0.2504    0.0000 H   0  0
   -3.8973   -0.2545    0.0000 H   0  0
   -3.0338    3.2399    0.0000 H   0  0
   -3.8975    4.7411    0.0000 H   0  0
  1  2  1  0
  2  3  1  0
  3  4  1  0
  4  5  2  0
  4  6  1  0
  6  7  1  0
  7  8  1  0
  8  9  1  0
  9 10  2  0
 10 11  1  0
 11 12  2  0
 12 13  1  0
 13 14  2  0
  9 14  1  0
 12 15  1  0
 15 16  2  0
 15 17  1  0
 17 18  1  0
 18 19  2  0
 19 20  1  0
 20 21  2  0
 21 22  1  0
 22 23  2  0
 18 23  1  0
 23 24  1  0
 20 25  1  0
 25 26  2  0
 26 27  1  0
 27 28  2  0
 28 29  1  0
 25 29  1  0
  4 30  1  0
 30 31  1  0
 31 32  1  0
  1 33  1  0
  1 34  1  0
  1 35  1  0
  2 36  1  0
  2 37  1  0
  6 38  1  0
  6 39  1  0
  8 40  1  0
  8 41  1  0
 10 42  1  0
 11 43  1  0
 13 44  1  0
 14 45  1  0
 19 46  1  0
 21 47  1  0
 22 48  1  0
 26 49  1  0
 27 50  1  0
 28 51  1  0
 31 52  1  0
 31 53  1  0
 32 54  1  0
 32 55  1  0
 32 56  1  0
  7 57  1  0
  7 58  1  0
 17 59  1  0
 24 60  1  0
 24 61  1  0
M  CHG  1   7   1
M  END
> <Name>
CHEMBL470225

> <ALogP>
1.64

> <Molecular_Weight>
474.53282

> <Num_H_Acceptors>
5

> <Num_H_Donors>
3

> <Num_RotatableBonds>
11

> <FormalCharge>
1

$$$$
CHEMBL471399
  SciTegic01131515592D

 63 67  0  0  0  0            999 V2000
    4.0223   -1.3923    0.0000 C   0  0
    2.6591   -2.0202    0.0000 C   0  0
    2.5493   -3.2152    0.0000 O   0  0
    1.4351   -1.1556    0.0000 N   0  0
    0.0186   -1.6401    0.0000 C   0  0
   -0.8574   -0.4287    0.0000 C   0  0
    0.0186    0.7828    0.0000 C   0  0
    1.3979    1.3979    0.0000 C   0  0
    1.5656    2.8889    0.0000 C   0  0
    0.3168    3.8022    0.0000 C   0  0
   -1.0251    3.1871    0.0000 N   0  0
   -1.1742    1.6588    0.0000 C   0  0
   -2.2473    4.0580    0.0000 C   0  0
   -3.6124    3.4360    0.0000 C   0  0
   -4.8336    4.3070    0.0000 C   0  0
   -4.6899    5.8001    0.0000 C   0  0
   -3.3250    6.4222    0.0000 C   0  0
   -2.1038    5.5512    0.0000 N   0  0
   -5.9100    6.6741    0.0000 C   0  0
   -7.0028    6.1783    0.0000 O   0  0
   -5.7641    8.1678    0.0000 N   0  0
   -6.9842    9.0417    0.0000 C   0  0
   -6.8406   10.5349    0.0000 C   0  0
   -8.0618   11.4059    0.0000 C   0  0
   -9.4267   10.7838    0.0000 C   0  0
   -9.5704    9.2907    0.0000 C   0  0
   -8.3492    8.4197    0.0000 C   0  0
   -8.4900    6.9255    0.0000 N   0  0
   -7.9180   12.8997    0.0000 C   0  0
   -6.6288   13.6414    0.0000 C   0  0
   -6.9559   15.1053    0.0000 C   0  0
   -8.4492   15.2467    0.0000 C   0  0
   -9.0451   13.8701    0.0000 S   0  0
    1.4351    0.3168    0.0000 C   0  0
    4.8391   -1.9692    0.0000 H   0  0
    4.9304   -0.9735    0.0000 H   0  0
    4.1138   -0.3965    0.0000 H   0  0
   -0.9611   -1.8405    0.0000 H   0  0
    0.7030   -2.3693    0.0000 H   0  0
   -1.3442    0.4448    0.0000 H   0  0
   -1.3443   -1.3021    0.0000 H   0  0
    0.6052    2.0075    0.0000 H   0  0
    2.3029    1.8232    0.0000 H   0  0
    1.6520    3.8852    0.0000 H   0  0
    2.3575    2.2783    0.0000 H   0  0
    1.2380    4.1913    0.0000 H   0  0
   -0.5076    4.3681    0.0000 H   0  0
   -0.2712    2.0885    0.0000 H   0  0
   -1.9696    2.2649    0.0000 H   0  0
   -3.7082    2.4406    0.0000 H   0  0
   -5.7435    3.8922    0.0000 H   0  0
   -3.2292    7.4176    0.0000 H   0  0
   -5.9306   10.9496    0.0000 H   0  0
  -10.2408   11.3645    0.0000 H   0  0
  -10.4804    8.8760    0.0000 H   0  0
   -5.7135   13.2387    0.0000 H   0  0
   -6.2945   15.8554    0.0000 H   0  0
   -8.9581   16.1075    0.0000 H   0  0
    0.6340   -0.2817    0.0000 H   0  0
    2.3417   -0.1052    0.0000 H   0  0
   -4.8534    8.5809    0.0000 H   0  0
   -7.6751    6.3459    0.0000 H   0  0
   -9.3992    6.5092    0.0000 H   0  0
  1  2  1  0
  2  3  2  0
  2  4  1  0
  4  5  1  0
  5  6  1  0
  6  7  1  0
  7  8  1  0
  8  9  1  0
  9 10  1  0
 10 11  1  0
 11 12  1  0
  7 12  1  0
 11 13  1  0
 13 14  2  0
 14 15  1  0
 15 16  2  0
 16 17  1  0
 17 18  2  0
 13 18  1  0
 16 19  1  0
 19 20  2  0
 19 21  1  0
 21 22  1  0
 22 23  2  0
 23 24  1  0
 24 25  2  0
 25 26  1  0
 26 27  2  0
 22 27  1  0
 27 28  1  0
 24 29  1  0
 29 30  2  0
 30 31  1  0
 31 32  2  0
 32 33  1  0
 29 33  1  0
  7 34  1  0
  4 34  1  0
  1 35  1  0
  1 36  1  0
  1 37  1  0
  5 38  1  0
  5 39  1  0
  6 40  1  0
  6 41  1  0
  8 42  1  0
  8 43  1  0
  9 44  1  0
  9 45  1  0
 10 46  1  0
 10 47  1  0
 12 48  1  0
 12 49  1  0
 14 50  1  0
 15 51  1  0
 17 52  1  0
 23 53  1  0
 25 54  1  0
 26 55  1  0
 30 56  1  0
 31 57  1  0
 32 58  1  0
 34 59  1  0
 34 60  1  0
 21 61  1  0
 28 62  1  0
 28 63  1  0
M  END
> <Name>
CHEMBL471399

> <ALogP>
2.836

> <Molecular_Weight>
475.60576

> <Num_H_Acceptors>
5

> <Num_H_Donors>
2

> <Num_RotatableBonds>
4

> <FormalCharge>
0

$$$$
CHEMBL216463
  SciTegic01131515592D

 45 48  0  0  0  0            999 V2000
  -17.3500   -0.3895    0.0000 O   0  0
  -15.8571   -0.5426    0.0000 N   0  0
  -15.2423   -1.9118    0.0000 C   0  0
  -15.9450   -2.8846    0.0000 O   0  0
  -13.7519   -2.0647    0.0000 C   0  0
  -12.9960   -3.3603    0.0000 C   0  0
  -11.5302   -3.0418    0.0000 C   0  0
  -11.3991   -1.5603    0.0000 C   0  0
  -12.7533   -0.9454    0.0000 S   0  0
  -10.1040   -0.8019    0.0000 C   0  0
   -8.8004   -1.5439    0.0000 C   0  0
   -7.5060   -0.7860    0.0000 C   0  0
   -7.5152    0.7140    0.0000 C   0  0
   -6.2201    1.4724    0.0000 C   0  0
   -4.9153    0.7308    0.0000 N   0  3
   -3.6202    1.4892    0.0000 C   0  0
   -2.3155    0.7475    0.0000 C   0  0
   -2.3155   -0.7475    0.0000 C   0  0
   -1.0028   -1.5132    0.0000 C   0  0
    0.2917   -0.7475    0.0000 C   0  0
    1.7138   -1.2033    0.0000 O   0  0
    2.5889    0.0182    0.0000 C   0  0
    1.7138    1.2033    0.0000 O   0  0
    0.2917    0.7475    0.0000 C   0  0
   -1.0028    1.5132    0.0000 C   0  0
   -8.8188    1.4560    0.0000 C   0  0
  -10.1132    0.6980    0.0000 N   0  0
  -13.3986   -4.2757    0.0000 H   0  0
  -10.7801   -3.7031    0.0000 H   0  0
   -8.7942   -2.5439    0.0000 H   0  0
   -6.6369   -1.2806    0.0000 H   0  0
   -6.2266    2.4724    0.0000 H   0  0
   -7.0893    1.9669    0.0000 H   0  0
   -3.6266    2.4892    0.0000 H   0  0
   -2.7575    1.9949    0.0000 H   0  0
   -3.1826   -1.2456    0.0000 H   0  0
   -0.9997   -2.5132    0.0000 H   0  0
    3.0696    0.8951    0.0000 H   0  0
    3.0823   -0.8516    0.0000 H   0  0
   -0.9997    2.5132    0.0000 H   0  0
   -8.8250    2.4560    0.0000 H   0  0
  -17.7596    0.5228    0.0000 H   0  0
  -15.2715    0.2680    0.0000 H   0  0
   -4.9088   -0.2692    0.0000 H   0  0
   -5.7780    0.2251    0.0000 H   0  0
  1  2  1  0
  2  3  1  0
  3  4  2  0
  3  5  1  0
  5  6  2  0
  6  7  1  0
  7  8  2  0
  8  9  1  0
  5  9  1  0
  8 10  1  0
 10 11  2  0
 11 12  1  0
 12 13  2  0
 13 14  1  0
 14 15  1  0
 15 16  1  0
 16 17  1  0
 17 18  2  0
 18 19  1  0
 19 20  2  0
 20 21  1  0
 21 22  1  0
 22 23  1  0
 23 24  1  0
 20 24  1  0
 24 25  2  0
 17 25  1  0
 13 26  1  0
 26 27  2  0
 10 27  1  0
  6 28  1  0
  7 29  1  0
 11 30  1  0
 12 31  1  0
 14 32  1  0
 14 33  1  0
 16 34  1  0
 16 35  1  0
 18 36  1  0
 19 37  1  0
 22 38  1  0
 22 39  1  0
 25 40  1  0
 26 41  1  0
  1 42  1  0
  2 43  1  0
 15 44  1  0
 15 45  1  0
M  CHG  1  15   1
M  END
> <Name>
CHEMBL216463

> <ALogP>
1.544

> <Molecular_Weight>
384.42892

> <Num_H_Acceptors>
5

> <Num_H_Donors>
3

> <Num_RotatableBonds>
6

> <FormalCharge>
1

$$$$
CHEMBL1083088
  SciTegic01131515592D

 40 40  0  0  0  0            999 V2000
    9.0755  -14.2734    0.0000 O   0  0
    9.0776  -12.7726    0.0000 N   0  0
    7.7794  -12.0195    0.0000 C   0  0
    6.7391  -12.6177    0.0000 O   0  0
    7.7815  -10.5187    0.0000 C   0  0
    6.4833   -9.7656    0.0000 C   0  0
    6.4855   -8.2648    0.0000 C   0  0
    5.1873   -7.5117    0.0000 C   0  0
    5.1894   -6.0109    0.0000 C   0  0
    3.8912   -5.2578    0.0000 N   0  0
    3.8933   -3.7570    0.0000 C   0  0
    4.9336   -3.1588    0.0000 O   0  0
    2.5951   -3.0039    0.0000 N   0  0
    2.5973   -1.5031    0.0000 C   0  0
    3.6375   -0.9049    0.0000 O   0  0
    1.2990   -0.7500    0.0000 C   0  0
    1.2990    0.7500    0.0000 C   0  0
    0.0000    1.5000    0.0000 C   0  0
   -1.2990    0.7500    0.0000 C   0  0
   -2.3383    1.3500    0.0000 I   0  0
   -1.2990   -0.7500    0.0000 C   0  0
    0.0000   -1.5000    0.0000 C   0  0
    8.6468  -11.0201    0.0000 H   0  0
    8.6484  -10.0202    0.0000 H   0  0
    5.6181   -9.2643    0.0000 H   0  0
    5.6164  -10.2641    0.0000 H   0  0
    6.4874   -7.2648    0.0000 H   0  0
    7.3524   -7.7663    0.0000 H   0  0
    4.3220   -7.0104    0.0000 H   0  0
    4.3204   -8.0102    0.0000 H   0  0
    5.1913   -5.0109    0.0000 H   0  0
    6.0563   -5.5124    0.0000 H   0  0
    2.1651    1.2500    0.0000 H   0  0
    0.0000    2.5000    0.0000 H   0  0
   -2.1651   -1.2500    0.0000 H   0  0
    0.0000   -2.5000    0.0000 H   0  0
    9.9405  -14.7752    0.0000 H   0  0
    9.9445  -12.2741    0.0000 H   0  0
    3.0243   -5.7563    0.0000 H   0  0
    1.7282   -3.5024    0.0000 H   0  0
  1  2  1  0
  2  3  1  0
  3  4  2  0
  3  5  1  0
  5  6  1  0
  6  7  1  0
  7  8  1  0
  8  9  1  0
  9 10  1  0
 10 11  1  0
 11 12  2  0
 11 13  1  0
 13 14  1  0
 14 15  2  0
 14 16  1  0
 16 17  2  0
 17 18  1  0
 18 19  2  0
 19 20  1  0
 19 21  1  0
 21 22  2  0
 16 22  1  0
  5 23  1  0
  5 24  1  0
  6 25  1  0
  6 26  1  0
  7 27  1  0
  7 28  1  0
  8 29  1  0
  8 30  1  0
  9 31  1  0
  9 32  1  0
 17 33  1  0
 18 34  1  0
 21 35  1  0
 22 36  1  0
  1 37  1  0
  2 38  1  0
 10 39  1  0
 13 40  1  0
M  END
> <Name>
CHEMBL1083088

> <ALogP>
1.744

> <Molecular_Weight>
419.21489

> <Num_H_Acceptors>
4

> <Num_H_Donors>
4

> <Num_RotatableBonds>
7

> <FormalCharge>
0

$$$$
CHEMBL1923808
  SciTegic01131515592D

 39 39  0  0  0  0            999 V2000
    9.0776  -12.7726    0.0000 O   0  0
    7.7794  -12.0195    0.0000 N   0  0
    7.7815  -10.5187    0.0000 C   0  0
    8.8218   -9.9205    0.0000 O   0  0
    6.4833   -9.7656    0.0000 C   0  0
    6.4855   -8.2648    0.0000 C   0  0
    5.1873   -7.5117    0.0000 C   0  0
    5.1894   -6.0109    0.0000 C   0  0
    3.8912   -5.2578    0.0000 C   0  0
    3.8933   -3.7570    0.0000 C   0  0
    2.5951   -3.0039    0.0000 C   0  0
    1.5548   -3.6021    0.0000 O   0  0
    2.5973   -1.5031    0.0000 N   0  0
    1.2990   -0.7500    0.0000 C   0  0
    1.2990    0.7500    0.0000 C   0  0
    0.0000    1.5000    0.0000 C   0  0
   -1.2990    0.7500    0.0000 C   0  0
   -2.3383    1.3500    0.0000 F   0  0
   -1.2990   -0.7500    0.0000 C   0  0
    0.0000   -1.5000    0.0000 C   0  0
    5.6164  -10.2641    0.0000 H   0  0
    6.4814  -10.7656    0.0000 H   0  0
    7.3524   -7.7663    0.0000 H   0  0
    6.4874   -7.2648    0.0000 H   0  0
    4.3204   -8.0102    0.0000 H   0  0
    4.3220   -7.0104    0.0000 H   0  0
    6.0563   -5.5124    0.0000 H   0  0
    5.1913   -5.0109    0.0000 H   0  0
    3.0243   -5.7563    0.0000 H   0  0
    3.0260   -4.7564    0.0000 H   0  0
    4.7602   -3.2585    0.0000 H   0  0
    3.8952   -2.7570    0.0000 H   0  0
    2.1651    1.2500    0.0000 H   0  0
    0.0000    2.5000    0.0000 H   0  0
   -2.1651   -1.2500    0.0000 H   0  0
    0.0000   -2.5000    0.0000 H   0  0
    9.0762  -13.7726    0.0000 H   0  0
    6.9125  -12.5180    0.0000 H   0  0
    3.4642   -1.0046    0.0000 H   0  0
  1  2  1  0
  2  3  1  0
  3  4  2  0
  3  5  1  0
  5  6  1  0
  6  7  1  0
  7  8  1  0
  8  9  1  0
  9 10  1  0
 10 11  1  0
 11 12  2  0
 11 13  1  0
 13 14  1  0
 14 15  2  0
 15 16  1  0
 16 17  2  0
 17 18  1  0
 17 19  1  0
 19 20  2  0
 14 20  1  0
  5 21  1  0
  5 22  1  0
  6 23  1  0
  6 24  1  0
  7 25  1  0
  7 26  1  0
  8 27  1  0
  8 28  1  0
  9 29  1  0
  9 30  1  0
 10 31  1  0
 10 32  1  0
 15 33  1  0
 16 34  1  0
 19 35  1  0
 20 36  1  0
  1 37  1  0
  2 38  1  0
 13 39  1  0
M  ISO  1  18  19
M  END
> <Name>
CHEMBL1923808

> <ALogP>
2.211

> <Molecular_Weight>
282.31226

> <Num_H_Acceptors>
3

> <Num_H_Donors>
3

> <Num_RotatableBonds>
8

> <FormalCharge>
0

$$$$
CHEMBL513536
  SciTegic01131515592D

 53 55  0  0  0  0            999 V2000
    4.3513   -3.3112    0.0000 C   0  0
    4.8637   -1.9005    0.0000 C   0  0
    3.8990   -0.7508    0.0000 P   0  0
    3.8994    0.4492    0.0000 O   0  0
    5.4055   -0.4835    0.0000 C   0  0
    6.3721   -1.6315    0.0000 C   0  0
    2.5988   -1.5004    0.0000 C   0  0
    1.2990   -0.7500    0.0000 C   0  0
    1.2990    0.7500    0.0000 C   0  0
    0.0000    1.5000    0.0000 C   0  0
   -1.2990    0.7500    0.0000 C   0  0
   -1.2990   -0.7500    0.0000 C   0  0
    0.0000   -1.5000    0.0000 C   0  0
   -2.6003    1.4977    0.0000 C   0  0
   -2.6024    2.6977    0.0000 O   0  0
   -3.8990    0.7455    0.0000 N   0  0
   -5.2003    1.4932    0.0000 C   0  0
   -6.4994    0.7432    0.0000 C   0  0
   -7.7985    1.4932    0.0000 C   0  0
   -7.7985    2.9932    0.0000 C   0  0
   -6.4995    3.7432    0.0000 C   0  0
   -5.2004    2.9933    0.0000 C   0  0
   -3.8992    3.7411    0.0000 N   0  0
   -9.0981    0.7428    0.0000 C   0  0
   -9.2383   -0.7379    0.0000 C   0  0
  -10.7060   -1.0475    0.0000 C   0  0
  -11.4540    0.2528    0.0000 C   0  0
  -10.4486    1.3659    0.0000 S   0  0
    4.9941   -4.0772    0.0000 H   0  0
    3.3666   -3.4851    0.0000 H   0  0
    4.0094   -4.2509    0.0000 H   0  0
    5.8485   -1.7266    0.0000 H   0  0
    5.2056   -0.9608    0.0000 H   0  0
    4.7617    0.2818    0.0000 H   0  0
    5.7462    0.4567    0.0000 H   0  0
    7.3567   -1.4569    0.0000 H   0  0
    7.0158   -2.3968    0.0000 H   0  0
    6.0314   -2.5717    0.0000 H   0  0
    2.5985   -2.5004    0.0000 H   0  0
    1.7327   -2.0003    0.0000 H   0  0
    2.1651    1.2500    0.0000 H   0  0
    0.0000    2.5000    0.0000 H   0  0
   -2.1651   -1.2500    0.0000 H   0  0
    0.0000   -2.5000    0.0000 H   0  0
   -6.4994   -0.2568    0.0000 H   0  0
   -8.6646    3.4932    0.0000 H   0  0
   -6.4995    4.7432    0.0000 H   0  0
   -8.4923   -1.4037    0.0000 H   0  0
  -11.1142   -1.9604    0.0000 H   0  0
  -12.4484    0.3588    0.0000 H   0  0
   -3.8973   -0.2545    0.0000 H   0  0
   -3.0338    3.2399    0.0000 H   0  0
   -3.8975    4.7411    0.0000 H   0  0
  1  2  1  0
  2  3  1  0
  3  4  2  0
  3  5  1  0
  5  6  1  0
  3  7  1  0
  7  8  1  0
  8  9  2  0
  9 10  1  0
 10 11  2  0
 11 12  1  0
 12 13  2  0
  8 13  1  0
 11 14  1  0
 14 15  2  0
 14 16  1  0
 16 17  1  0
 17 18  2  0
 18 19  1  0
 19 20  2  0
 20 21  1  0
 21 22  2  0
 17 22  1  0
 22 23  1  0
 19 24  1  0
 24 25  2  0
 25 26  1  0
 26 27  2  0
 27 28  1  0
 24 28  1  0
  1 29  1  0
  1 30  1  0
  1 31  1  0
  2 32  1  0
  2 33  1  0
  5 34  1  0
  5 35  1  0
  6 36  1  0
  6 37  1  0
  6 38  1  0
  7 39  1  0
  7 40  1  0
  9 41  1  0
 10 42  1  0
 12 43  1  0
 13 44  1  0
 18 45  1  0
 20 46  1  0
 21 47  1  0
 25 48  1  0
 26 49  1  0
 27 50  1  0
 16 51  1  0
 23 52  1  0
 23 53  1  0
M  END
> <Name>
CHEMBL513536

> <ALogP>
4.038

> <Molecular_Weight>
412.48486

> <Num_H_Acceptors>
3

> <Num_H_Donors>
2

> <Num_RotatableBonds>
7

> <FormalCharge>
0

$$$$
CHEMBL99877
  SciTegic01131515592D

 52 53  0  0  0  0            999 V2000
    7.7794  -12.0195    0.0000 O   0  0
    7.7815  -10.5187    0.0000 N   0  0
    6.4833   -9.7656    0.0000 C   0  0
    5.4431  -10.3638    0.0000 O   0  0
    6.4855   -8.2648    0.0000 C   0  0
    5.1873   -7.5117    0.0000 C   0  0
    5.1894   -6.0109    0.0000 C   0  0
    3.8912   -5.2578    0.0000 C   0  0
    3.8933   -3.7570    0.0000 C   0  0
    2.5951   -3.0039    0.0000 C   0  0
    2.5973   -1.5031    0.0000 C   0  0
    3.6375   -0.9049    0.0000 O   0  0
    1.2990   -0.7500    0.0000 C   0  0
    1.2990    0.7500    0.0000 C   0  0
    0.0000    1.5000    0.0000 C   0  0
   -1.2990    0.7500    0.0000 C   0  0
   -1.2990   -0.7500    0.0000 C   0  0
    0.0000   -1.5000    0.0000 C   0  0
   -2.5987    1.5004    0.0000 N   0  0
   -2.6012    3.0004    0.0000 C   0  0
   -3.9015    3.7484    0.0000 C   0  0
   -5.1993    2.9963    0.0000 C   0  0
   -5.1969    1.4963    0.0000 C   0  0
   -3.8967    0.7484    0.0000 C   0  0
    7.3524   -7.7663    0.0000 H   0  0
    7.3507   -8.7662    0.0000 H   0  0
    4.3204   -8.0102    0.0000 H   0  0
    4.3220   -7.0104    0.0000 H   0  0
    6.0563   -5.5124    0.0000 H   0  0
    5.1913   -5.0109    0.0000 H   0  0
    3.0243   -5.7563    0.0000 H   0  0
    3.0260   -4.7564    0.0000 H   0  0
    4.7602   -3.2585    0.0000 H   0  0
    3.8952   -2.7570    0.0000 H   0  0
    1.7282   -3.5024    0.0000 H   0  0
    1.7299   -2.5025    0.0000 H   0  0
    2.1651    1.2500    0.0000 H   0  0
    0.0000    2.5000    0.0000 H   0  0
   -2.1651   -1.2500    0.0000 H   0  0
    0.0000   -2.5000    0.0000 H   0  0
   -2.6265    4.0001    0.0000 H   0  0
   -1.7463    2.4816    0.0000 H   0  0
   -3.0246    4.2292    0.0000 H   0  0
   -4.7797    4.2265    0.0000 H   0  0
   -5.1773    3.9960    0.0000 H   0  0
   -6.0525    2.4747    0.0000 H   0  0
   -4.3201    1.9771    0.0000 H   0  0
   -5.1718    0.4966    0.0000 H   0  0
   -4.7735    0.2676    0.0000 H   0  0
   -3.0184    0.2702    0.0000 H   0  0
    8.6444  -12.5213    0.0000 H   0  0
    8.6484  -10.0202    0.0000 H   0  0
  1  2  1  0
  2  3  1  0
  3  4  2  0
  3  5  1  0
  5  6  1  0
  6  7  1  0
  7  8  1  0
  8  9  1  0
  9 10  1  0
 10 11  1  0
 11 12  2  0
 11 13  1  0
 13 14  2  0
 14 15  1  0
 15 16  2  0
 16 17  1  0
 17 18  2  0
 13 18  1  0
 16 19  1  0
 19 20  1  0
 20 21  1  0
 21 22  1  0
 22 23  1  0
 23 24  1  0
 19 24  1  0
  5 25  1  0
  5 26  1  0
  6 27  1  0
  6 28  1  0
  7 29  1  0
  7 30  1  0
  8 31  1  0
  8 32  1  0
  9 33  1  0
  9 34  1  0
 10 35  1  0
 10 36  1  0
 14 37  1  0
 15 38  1  0
 17 39  1  0
 18 40  1  0
 20 41  1  0
 20 42  1  0
 21 43  1  0
 21 44  1  0
 22 45  1  0
 22 46  1  0
 23 47  1  0
 23 48  1  0
 24 49  1  0
 24 50  1  0
  1 51  1  0
  2 52  1  0
M  END
> <Name>
CHEMBL99877

> <ALogP>
3.704

> <Molecular_Weight>
332.43722

> <Num_H_Acceptors>
4

> <Num_H_Donors>
2

> <Num_RotatableBonds>
9

> <FormalCharge>
0

$$$$
CHEMBL270739
  SciTegic01131515592D

 64 67  0  0  0  0            999 V2000
    6.4973  -14.2462    0.0000 O   0  0
    7.2325  -12.9378    0.0000 N   0  0
    6.4678  -11.6464    0.0000 C   0  0
    5.2679  -11.6600    0.0000 O   0  0
    7.2030  -10.3380    0.0000 C   0  0
    6.4383   -9.0466    0.0000 C   0  0
    7.1735   -7.7381    0.0000 C   0  0
    6.4088   -6.4467    0.0000 C   0  0
    7.1440   -5.1383    0.0000 C   0  0
    6.3793   -3.8469    0.0000 C   0  0
    5.1794   -3.8605    0.0000 O   0  0
    7.1145   -2.5385    0.0000 N   0  0
    6.3513   -1.2462    0.0000 C   0  0
    4.8506   -1.2602    0.0000 C   0  0
    4.2606   -2.3052    0.0000 O   0  0
    4.0872    0.0320    0.0000 N   0  0
    2.5889    0.0182    0.0000 C   0  0
    1.7138    1.2033    0.0000 N   0  0
    0.2917    0.7475    0.0000 C   0  0
   -1.0028    1.5132    0.0000 C   0  0
   -2.3155    0.7475    0.0000 C   0  0
   -2.3155   -0.7475    0.0000 C   0  0
   -1.0028   -1.5132    0.0000 C   0  0
    0.2917   -0.7475    0.0000 C   0  0
    1.7138   -1.2033    0.0000 S   0  0
    8.6154   -2.5245    0.0000 C   0  0
    9.3787   -3.8167    0.0000 C   0  0
    8.7887   -4.8617    0.0000 O   0  0
   10.8794   -3.8027    0.0000 N   0  0
   11.6427   -5.0949    0.0000 C   0  0
   13.1001   -5.2158    0.0000 N   0  0
   13.4421   -6.6694    0.0000 C   0  0
   14.7653   -7.3844    0.0000 C   0  0
   14.7852   -8.9040    0.0000 C   0  0
   13.5038   -9.6742    0.0000 C   0  0
   12.1713   -8.9436    0.0000 C   0  0
   12.1607   -7.4396    0.0000 C   0  0
   11.0374   -6.4556    0.0000 S   0  0
    7.7130  -11.1982    0.0000 H   0  0
    8.2030  -10.3266    0.0000 H   0  0
    5.9284   -8.1863    0.0000 H   0  0
    5.4384   -9.0579    0.0000 H   0  0
    7.6638   -6.8666    0.0000 H   0  0
    8.1735   -7.7268    0.0000 H   0  0
    5.8989   -5.5865    0.0000 H   0  0
    5.4089   -6.4581    0.0000 H   0  0
    7.6343   -4.2668    0.0000 H   0  0
    8.1440   -5.1270    0.0000 H   0  0
    5.8431   -0.3850    0.0000 H   0  0
    6.8430   -0.3754    0.0000 H   0  0
   -0.9997    2.5132    0.0000 H   0  0
   -3.1826    1.2456    0.0000 H   0  0
   -3.1826   -1.2456    0.0000 H   0  0
   -0.9997   -2.5132    0.0000 H   0  0
    9.6153   -2.5147    0.0000 H   0  0
    9.1070   -1.6537    0.0000 H   0  0
   15.6208   -6.8667    0.0000 H   0  0
   15.6588   -9.3907    0.0000 H   0  0
   13.5237  -10.6740    0.0000 H   0  0
   11.3126   -9.4561    0.0000 H   0  0
    7.0069  -15.1066    0.0000 H   0  0
    8.2325  -12.9264    0.0000 H   0  0
    4.5789    0.9028    0.0000 H   0  0
   11.3711   -2.9319    0.0000 H   0  0
  1  2  1  0
  2  3  1  0
  3  4  2  0
  3  5  1  0
  5  6  1  0
  6  7  1  0
  7  8  1  0
  8  9  1  0
  9 10  1  0
 10 11  2  0
 10 12  1  0
 12 13  1  0
 13 14  1  0
 14 15  2  0
 14 16  1  0
 16 17  1  0
 17 18  2  0
 18 19  1  0
 19 20  2  0
 20 21  1  0
 21 22  2  0
 22 23  1  0
 23 24  2  0
 19 24  1  0
 24 25  1  0
 17 25  1  0
 12 26  1  0
 26 27  1  0
 27 28  2  0
 27 29  1  0
 29 30  1  0
 30 31  2  0
 31 32  1  0
 32 33  2  0
 33 34  1  0
 34 35  2  0
 35 36  1  0
 36 37  2  0
 32 37  1  0
 37 38  1  0
 30 38  1  0
  5 39  1  0
  5 40  1  0
  6 41  1  0
  6 42  1  0
  7 43  1  0
  7 44  1  0
  8 45  1  0
  8 46  1  0
  9 47  1  0
  9 48  1  0
 13 49  1  0
 13 50  1  0
 20 51  1  0
 21 52  1  0
 22 53  1  0
 23 54  1  0
 26 55  1  0
 26 56  1  0
 33 57  1  0
 34 58  1  0
 35 59  1  0
 36 60  1  0
  1 61  1  0
  2 62  1  0
 16 63  1  0
 29 64  1  0
M  END
> <Name>
CHEMBL270739

> <ALogP>
2.702

> <Molecular_Weight>
554.64113

> <Num_H_Acceptors>
7

> <Num_H_Donors>
4

> <Num_RotatableBonds>
12

> <FormalCharge>
0

$$$$
CHEMBL471466
  SciTegic01131515592D

 55 58  0  0  0  0            999 V2000
    3.9026    0.7500    0.0000 C   0  0
    3.8990   -0.7508    0.0000 N   0  0
    2.5988   -1.5004    0.0000 C   0  0
    1.2990   -0.7500    0.0000 C   0  0
    1.2990    0.7500    0.0000 C   0  0
    0.0000    1.5000    0.0000 C   0  0
   -1.2990    0.7500    0.0000 C   0  0
   -1.2990   -0.7500    0.0000 C   0  0
    0.0000   -1.5000    0.0000 C   0  0
   -2.6003    1.4977    0.0000 C   0  0
   -2.6024    2.6977    0.0000 O   0  0
   -3.8990    0.7455    0.0000 N   0  0
   -5.2003    1.4932    0.0000 C   0  0
   -6.4994    0.7432    0.0000 C   0  0
   -7.7985    1.4932    0.0000 C   0  0
   -7.7985    2.9932    0.0000 C   0  0
   -6.4995    3.7432    0.0000 C   0  0
   -5.2004    2.9933    0.0000 C   0  0
   -3.8992    3.7411    0.0000 N   0  0
   -9.0981    0.7428    0.0000 C   0  0
   -9.1006   -0.7573    0.0000 C   0  0
  -10.4008   -1.5053    0.0000 C   0  0
  -11.6987   -0.7532    0.0000 C   0  0
  -11.6963    0.7468    0.0000 C   0  0
  -10.3961    1.4947    0.0000 C   0  0
    5.1988   -1.5012    0.0000 C   0  0
    6.4994   -0.7539    0.0000 C   0  0
    7.7969   -1.5066    0.0000 C   0  0
    7.7939   -3.0066    0.0000 N   0  0
    6.4933   -3.7539    0.0000 C   0  0
    5.1958   -3.0013    0.0000 C   0  0
    4.7695    1.2485    0.0000 H   0  0
    3.9045    1.7500    0.0000 H   0  0
    3.0376    1.2518    0.0000 H   0  0
    3.4646   -2.0008    0.0000 H   0  0
    2.5985   -2.5004    0.0000 H   0  0
    2.1651    1.2500    0.0000 H   0  0
    0.0000    2.5000    0.0000 H   0  0
   -2.1651   -1.2500    0.0000 H   0  0
    0.0000   -2.5000    0.0000 H   0  0
   -6.4994   -0.2568    0.0000 H   0  0
   -8.6646    3.4932    0.0000 H   0  0
   -6.4995    4.7432    0.0000 H   0  0
   -8.2354   -1.2587    0.0000 H   0  0
  -10.4023   -2.5053    0.0000 H   0  0
  -12.5655   -1.2519    0.0000 H   0  0
  -12.5616    1.2481    0.0000 H   0  0
  -10.3946    2.4947    0.0000 H   0  0
    6.5015    0.2461    0.0000 H   0  0
    8.6640   -1.0083    0.0000 H   0  0
    6.4913   -4.7539    0.0000 H   0  0
    4.3288   -3.4996    0.0000 H   0  0
   -3.8973   -0.2545    0.0000 H   0  0
   -3.0338    3.2399    0.0000 H   0  0
   -3.8975    4.7411    0.0000 H   0  0
  1  2  1  0
  2  3  1  0
  3  4  1  0
  4  5  2  0
  5  6  1  0
  6  7  2  0
  7  8  1  0
  8  9  2  0
  4  9  1  0
  7 10  1  0
 10 11  2  0
 10 12  1  0
 12 13  1  0
 13 14  2  0
 14 15  1  0
 15 16  2  0
 16 17  1  0
 17 18  2  0
 13 18  1  0
 18 19  1  0
 15 20  1  0
 20 21  2  0
 21 22  1  0
 22 23  2  0
 23 24  1  0
 24 25  2  0
 20 25  1  0
  2 26  1  0
 26 27  2  0
 27 28  1  0
 28 29  2  0
 29 30  1  0
 30 31  2  0
 26 31  1  0
  1 32  1  0
  1 33  1  0
  1 34  1  0
  3 35  1  0
  3 36  1  0
  5 37  1  0
  6 38  1  0
  8 39  1  0
  9 40  1  0
 14 41  1  0
 16 42  1  0
 17 43  1  0
 21 44  1  0
 22 45  1  0
 23 46  1  0
 24 47  1  0
 25 48  1  0
 27 49  1  0
 28 50  1  0
 30 51  1  0
 31 52  1  0
 12 53  1  0
 19 54  1  0
 19 55  1  0
M  END
> <Name>
CHEMBL471466

> <ALogP>
3.981

> <Molecular_Weight>
408.49496

> <Num_H_Acceptors>
4

> <Num_H_Donors>
2

> <Num_RotatableBonds>
6

> <FormalCharge>
0

$$$$
CHEMBL474903
  SciTegic01131515592D

 50 53  0  0  0  0            999 V2000
    2.3383   -1.3500    0.0000 O   0  5
    1.2990   -0.7500    0.0000 C   0  0
    1.2990    0.7500    0.0000 C   0  0
    0.0000    1.5000    0.0000 C   0  0
   -1.2990    0.7500    0.0000 C   0  0
   -1.2990   -0.7500    0.0000 C   0  0
    0.0000   -1.5000    0.0000 C   0  0
    0.0031   -3.0008    0.0000 N   0  0
    1.3039   -3.7494    0.0000 C   0  0
    2.3421   -3.1476    0.0000 O   0  0
    1.3070   -5.2502    0.0000 C   0  0
    2.6060   -6.0003    0.0000 C   0  0
    2.6061   -7.5003    0.0000 C   0  0
    1.3071   -8.2503    0.0000 C   0  0
    1.3071   -9.7511    0.0000 C   0  0
    2.6064  -10.5023    0.0000 N   0  0
    2.6064  -12.0032    0.0000 C   0  0
    3.9039  -12.7559    0.0000 C   0  0
    3.9009  -14.2559    0.0000 C   0  0
    2.6004  -15.0032    0.0000 N   0  0
    1.3029  -14.2506    0.0000 C   0  0
    1.3059  -12.7506    0.0000 C   0  0
    0.0080   -7.5003    0.0000 C   0  0
    0.0080   -6.0003    0.0000 C   0  0
   -2.5987    1.5004    0.0000 C   0  0
   -2.6012    3.0004    0.0000 C   0  0
   -3.9015    3.7484    0.0000 C   0  0
   -5.1993    2.9963    0.0000 C   0  0
   -5.1969    1.4963    0.0000 C   0  0
   -3.8967    0.7484    0.0000 C   0  0
    2.1651    1.2500    0.0000 H   0  0
    0.0000    2.5000    0.0000 H   0  0
   -2.1651   -1.2500    0.0000 H   0  0
    3.4721   -5.5003    0.0000 H   0  0
    3.4721   -8.0003    0.0000 H   0  0
    0.4409  -10.2509    0.0000 H   0  0
    1.3067  -10.7511    0.0000 H   0  0
    4.7710  -12.2576    0.0000 H   0  0
    4.7660  -14.7576    0.0000 H   0  0
    0.4358  -14.7489    0.0000 H   0  0
    0.4408  -12.2489    0.0000 H   0  0
   -0.8580   -8.0004    0.0000 H   0  0
   -0.8581   -5.5004    0.0000 H   0  0
   -1.7360    3.5018    0.0000 H   0  0
   -3.9030    4.7484    0.0000 H   0  0
   -6.0661    3.4949    0.0000 H   0  0
   -6.0621    0.9949    0.0000 H   0  0
   -3.8951   -0.2516    0.0000 H   0  0
   -0.8621   -3.5023    0.0000 H   0  0
    3.4726  -10.0026    0.0000 H   0  0
  1  2  1  0
  2  3  2  0
  3  4  1  0
  4  5  2  0
  5  6  1  0
  6  7  2  0
  2  7  1  0
  7  8  1  0
  8  9  1  0
  9 10  2  0
  9 11  1  0
 11 12  2  0
 12 13  1  0
 13 14  2  0
 14 15  1  0
 15 16  1  0
 16 17  1  0
 17 18  2  0
 18 19  1  0
 19 20  2  0
 20 21  1  0
 21 22  2  0
 17 22  1  0
 14 23  1  0
 23 24  2  0
 11 24  1  0
  5 25  1  0
 25 26  2  0
 26 27  1  0
 27 28  2  0
 28 29  1  0
 29 30  2  0
 25 30  1  0
  3 31  1  0
  4 32  1  0
  6 33  1  0
 12 34  1  0
 13 35  1  0
 15 36  1  0
 15 37  1  0
 18 38  1  0
 19 39  1  0
 21 40  1  0
 22 41  1  0
 23 42  1  0
 24 43  1  0
 26 44  1  0
 27 45  1  0
 28 46  1  0
 29 47  1  0
 30 48  1  0
  8 49  1  0
 16 50  1  0
M  CHG  1   1  -1
M  END
> <Name>
CHEMBL474903

> <ALogP>
3.429

> <Molecular_Weight>
394.4452

> <Num_H_Acceptors>
4

> <Num_H_Donors>
2

> <Num_RotatableBonds>
6

> <FormalCharge>
-1

$$$$
CHEMBL398617
  SciTegic01131515592D

 51 53  0  0  0  0            999 V2000
    7.7988   -1.5020    0.0000 C   0  0
    6.4990   -0.7516    0.0000 C   0  0
    5.1988   -1.5012    0.0000 C   0  0
    5.1984   -2.7012    0.0000 O   0  0
    3.8990   -0.7508    0.0000 N   0  0
    2.5988   -1.5004    0.0000 C   0  0
    1.2990   -0.7500    0.0000 C   0  0
    1.2990    0.7500    0.0000 C   0  0
    0.0000    1.5000    0.0000 C   0  0
   -1.2990    0.7500    0.0000 C   0  0
   -1.2990   -0.7500    0.0000 C   0  0
    0.0000   -1.5000    0.0000 C   0  0
   -2.6003    1.4977    0.0000 C   0  0
   -2.6024    2.6977    0.0000 O   0  0
   -3.8990    0.7455    0.0000 N   0  0
   -5.2003    1.4932    0.0000 C   0  0
   -6.4994    0.7432    0.0000 C   0  0
   -7.7985    1.4932    0.0000 C   0  0
   -7.7985    2.9932    0.0000 C   0  0
   -6.4995    3.7432    0.0000 C   0  0
   -5.2004    2.9933    0.0000 C   0  0
   -3.8992    3.7411    0.0000 N   0  0
   -9.0981    0.7428    0.0000 C   0  0
   -9.1006   -0.7573    0.0000 C   0  0
  -10.4008   -1.5053    0.0000 C   0  0
  -11.6987   -0.7532    0.0000 C   0  0
  -11.6963    0.7468    0.0000 C   0  0
  -10.3961    1.4947    0.0000 C   0  0
    8.6651   -1.0026    0.0000 H   0  0
    8.6645   -2.0025    0.0000 H   0  0
    7.7984   -2.5020    0.0000 H   0  0
    5.6332   -0.2512    0.0000 H   0  0
    6.4993    0.2484    0.0000 H   0  0
    3.4646   -2.0008    0.0000 H   0  0
    2.5985   -2.5004    0.0000 H   0  0
    2.1651    1.2500    0.0000 H   0  0
    0.0000    2.5000    0.0000 H   0  0
   -2.1651   -1.2500    0.0000 H   0  0
    0.0000   -2.5000    0.0000 H   0  0
   -6.4994   -0.2568    0.0000 H   0  0
   -8.6646    3.4932    0.0000 H   0  0
   -6.4995    4.7432    0.0000 H   0  0
   -8.2354   -1.2587    0.0000 H   0  0
  -10.4023   -2.5053    0.0000 H   0  0
  -12.5655   -1.2519    0.0000 H   0  0
  -12.5616    1.2481    0.0000 H   0  0
  -10.3946    2.4947    0.0000 H   0  0
    3.8993    0.2492    0.0000 H   0  0
   -3.8973   -0.2545    0.0000 H   0  0
   -3.0338    3.2399    0.0000 H   0  0
   -3.8975    4.7411    0.0000 H   0  0
  1  2  1  0
  2  3  1  0
  3  4  2  0
  3  5  1  0
  5  6  1  0
  6  7  1  0
  7  8  2  0
  8  9  1  0
  9 10  2  0
 10 11  1  0
 11 12  2  0
  7 12  1  0
 10 13  1  0
 13 14  2  0
 13 15  1  0
 15 16  1  0
 16 17  2  0
 17 18  1  0
 18 19  2  0
 19 20  1  0
 20 21  2  0
 16 21  1  0
 21 22  1  0
 18 23  1  0
 23 24  2  0
 24 25  1  0
 25 26  2  0
 26 27  1  0
 27 28  2  0
 23 28  1  0
  1 29  1  0
  1 30  1  0
  1 31  1  0
  2 32  1  0
  2 33  1  0
  6 34  1  0
  6 35  1  0
  8 36  1  0
  9 37  1  0
 11 38  1  0
 12 39  1  0
 17 40  1  0
 19 41  1  0
 20 42  1  0
 24 43  1  0
 25 44  1  0
 26 45  1  0
 27 46  1  0
 28 47  1  0
  5 48  1  0
 15 49  1  0
 22 50  1  0
 22 51  1  0
M  END
> <Name>
CHEMBL398617

> <ALogP>
3.18

> <Molecular_Weight>
373.44762

> <Num_H_Acceptors>
3

> <Num_H_Donors>
3

> <Num_RotatableBonds>
6

> <FormalCharge>
0

$$$$
CHEMBL145891
  SciTegic01131515592D

 46 48  0  0  0  0            999 V2000
    5.1894   -6.0109    0.0000 O   0  0
    3.8912   -5.2578    0.0000 N   0  0
    3.8933   -3.7570    0.0000 C   0  0
    4.9336   -3.1588    0.0000 O   0  0
    2.5951   -3.0039    0.0000 C   0  0
    2.5973   -1.5031    0.0000 C   0  0
    1.2990   -0.7500    0.0000 C   0  0
    1.2990    0.7500    0.0000 C   0  0
    0.0000    1.5000    0.0000 C   0  0
   -1.2990    0.7500    0.0000 C   0  0
   -2.6003    1.4977    0.0000 N   0  0
   -3.8990    0.7455    0.0000 S   0  0
   -3.8969   -0.4545    0.0000 O   0  0
   -2.8588    0.1471    0.0000 O   0  0
   -5.2003    1.4932    0.0000 C   0  0
   -6.4978    0.7405    0.0000 C   0  0
   -7.7984    1.4878    0.0000 C   0  0
   -7.8015    2.9878    0.0000 C   0  0
   -6.5040    3.7405    0.0000 C   0  0
   -5.2034    2.9932    0.0000 C   0  0
   -9.1027    3.7355    0.0000 C   0  0
  -10.4015    2.9850    0.0000 C   0  0
  -11.7009    3.7344    0.0000 C   0  0
  -11.7016    5.2344    0.0000 C   0  0
  -10.4029    5.9850    0.0000 C   0  0
   -9.1035    5.2356    0.0000 C   0  0
   -1.2990   -0.7500    0.0000 C   0  0
    0.0000   -1.5000    0.0000 C   0  0
    1.7282   -3.5024    0.0000 H   0  0
    3.4642   -1.0046    0.0000 H   0  0
    2.1651    1.2500    0.0000 H   0  0
    0.0000    2.5000    0.0000 H   0  0
   -6.4958   -0.2595    0.0000 H   0  0
   -8.6634    0.9861    0.0000 H   0  0
   -6.5061    4.7405    0.0000 H   0  0
   -4.3384    3.4950    0.0000 H   0  0
  -10.4011    1.9850    0.0000 H   0  0
  -12.5667    3.2339    0.0000 H   0  0
  -12.5679    5.7339    0.0000 H   0  0
  -10.4034    6.9850    0.0000 H   0  0
   -8.2378    5.7360    0.0000 H   0  0
   -2.1651   -1.2500    0.0000 H   0  0
    0.0000   -2.5000    0.0000 H   0  0
    5.1880   -7.0109    0.0000 H   0  0
    3.0243   -5.7563    0.0000 H   0  0
   -2.6021    2.4977    0.0000 H   0  0
  1  2  1  0
  2  3  1  0
  3  4  2  0
  3  5  1  0
  5  6  2  0
  6  7  1  0
  7  8  2  0
  8  9  1  0
  9 10  2  0
 10 11  1  0
 11 12  1  0
 12 13  2  0
 12 14  2  0
 12 15  1  0
 15 16  2  0
 16 17  1  0
 17 18  2  0
 18 19  1  0
 19 20  2  0
 15 20  1  0
 18 21  1  0
 21 22  2  0
 22 23  1  0
 23 24  2  0
 24 25  1  0
 25 26  2  0
 21 26  1  0
 10 27  1  0
 27 28  2  0
  7 28  1  0
  5 29  1  0
  6 30  1  0
  8 31  1  0
  9 32  1  0
 16 33  1  0
 17 34  1  0
 19 35  1  0
 20 36  1  0
 22 37  1  0
 23 38  1  0
 24 39  1  0
 25 40  1  0
 26 41  1  0
 27 42  1  0
 28 43  1  0
  1 44  1  0
  2 45  1  0
 11 46  1  0
M  END
> <Name>
CHEMBL145891

> <ALogP>
3.318

> <Molecular_Weight>
394.44362

> <Num_H_Acceptors>
4

> <Num_H_Donors>
3

> <Num_RotatableBonds>
6

> <FormalCharge>
0

$$$$
CHEMBL1834482
  SciTegic01131515592D

 40 42  0  0  0  0            999 V2000
    2.5951   -3.0039    0.0000 C   0  0
    2.5973   -1.5031    0.0000 N   0  0
    3.8968   -0.7523    0.0000 C   0  0
    1.2990   -0.7500    0.0000 C   0  0
    1.2990    0.7500    0.0000 C   0  0
    0.0000    1.5000    0.0000 C   0  0
   -1.2990    0.7500    0.0000 C   0  0
   -1.2990   -0.7500    0.0000 C   0  0
    0.0000   -1.5000    0.0000 C   0  0
   -2.5987    1.5004    0.0000 C   0  0
   -2.7390    2.9810    0.0000 N   0  0
   -4.2067    3.2905    0.0000 N   0  0
   -4.9546    1.9903    0.0000 C   0  0
   -6.4441    1.8282    0.0000 N   0  0
   -7.0504    0.4553    0.0000 C   0  0
   -8.5414    0.2909    0.0000 N   0  0
   -9.1445   -1.0825    0.0000 C   0  0
   -8.2567   -2.2916    0.0000 C   0  0
   -6.7657   -2.1272    0.0000 C   0  0
   -6.1626   -0.7538    0.0000 N   0  0
   -8.8573   -3.6670    0.0000 C   0  0
  -10.0499   -3.8005    0.0000 O   0  0
   -7.9673   -4.8754    0.0000 N   0  0
   -8.5680   -6.2508    0.0000 O   0  0
   -3.9492    0.8772    0.0000 S   0  0
    3.4601   -3.5057    0.0000 H   0  0
    2.5932   -4.0039    0.0000 H   0  0
    1.7282   -3.5024    0.0000 H   0  0
    3.8971    0.2477    0.0000 H   0  0
    4.7629   -0.2524    0.0000 H   0  0
    4.7628   -1.2523    0.0000 H   0  0
    2.1651    1.2500    0.0000 H   0  0
    0.0000    2.5000    0.0000 H   0  0
   -2.1651   -1.2500    0.0000 H   0  0
    0.0000   -2.5000    0.0000 H   0  0
  -10.1385   -1.1921    0.0000 H   0  0
   -6.1738   -2.9332    0.0000 H   0  0
   -7.0346    2.6353    0.0000 H   0  0
   -6.9735   -4.7641    0.0000 H   0  0
   -7.9749   -7.0560    0.0000 H   0  0
  1  2  1  0
  2  3  1  0
  2  4  1  0
  4  5  2  0
  5  6  1  0
  6  7  2  0
  7  8  1  0
  8  9  2  0
  4  9  1  0
  7 10  1  0
 10 11  2  0
 11 12  1  0
 12 13  2  0
 13 14  1  0
 14 15  1  0
 15 16  2  0
 16 17  1  0
 17 18  2  0
 18 19  1  0
 19 20  2  0
 15 20  1  0
 18 21  1  0
 21 22  2  0
 21 23  1  0
 23 24  1  0
 13 25  1  0
 10 25  1  0
  1 26  1  0
  1 27  1  0
  1 28  1  0
  3 29  1  0
  3 30  1  0
  3 31  1  0
  5 32  1  0
  6 33  1  0
  8 34  1  0
  9 35  1  0
 17 36  1  0
 19 37  1  0
 14 38  1  0
 23 39  1  0
 24 40  1  0
M  END
> <Name>
CHEMBL1834482

> <ALogP>
1.061

> <Molecular_Weight>
357.3903

> <Num_H_Acceptors>
8

> <Num_H_Donors>
3

> <Num_RotatableBonds>
5

> <FormalCharge>
0

$$$$
CHEMBL112446
  SciTegic01131515592D

 53 54  0  0  0  0            999 V2000
    9.0755  -14.2734    0.0000 C   0  0
    9.0776  -12.7726    0.0000 N   0  0
    7.7794  -12.0195    0.0000 C   0  0
    6.7391  -12.6177    0.0000 O   0  0
    7.7815  -10.5187    0.0000 C   0  0
    8.8218   -9.9205    0.0000 O   0  0
    6.4833   -9.7656    0.0000 C   0  0
    6.4855   -8.2648    0.0000 C   0  0
    5.1873   -7.5117    0.0000 C   0  0
    5.1894   -6.0109    0.0000 C   0  0
    3.8912   -5.2578    0.0000 C   0  0
    3.8933   -3.7570    0.0000 C   0  0
    2.5951   -3.0039    0.0000 C   0  0
    1.5548   -3.6021    0.0000 O   0  0
    2.5973   -1.5031    0.0000 N   0  0
    1.2990   -0.7500    0.0000 C   0  0
    1.2990    0.7500    0.0000 C   0  0
    0.0000    1.5000    0.0000 C   0  0
   -1.2990    0.7500    0.0000 C   0  0
   -1.2990   -0.7500    0.0000 C   0  0
    0.0000   -1.5000    0.0000 C   0  0
   -2.5987   -1.5004    0.0000 C   0  0
   -3.8991   -0.7525    0.0000 C   0  0
   -5.1969   -1.5046    0.0000 C   0  0
   -5.1945   -3.0046    0.0000 C   0  0
   -3.8943   -3.7525    0.0000 C   0  0
   -2.5964   -3.0004    0.0000 C   0  0
    9.9405  -14.7752    0.0000 H   0  0
    9.0736  -15.2734    0.0000 H   0  0
    8.2086  -14.7719    0.0000 H   0  0
    6.4814  -10.7656    0.0000 H   0  0
    5.6164  -10.2641    0.0000 H   0  0
    6.4874   -7.2648    0.0000 H   0  0
    7.3524   -7.7663    0.0000 H   0  0
    4.3220   -7.0104    0.0000 H   0  0
    4.3204   -8.0102    0.0000 H   0  0
    5.1913   -5.0109    0.0000 H   0  0
    6.0563   -5.5124    0.0000 H   0  0
    3.0260   -4.7564    0.0000 H   0  0
    3.0243   -5.7563    0.0000 H   0  0
    3.8952   -2.7570    0.0000 H   0  0
    4.7602   -3.2585    0.0000 H   0  0
    2.1651    1.2500    0.0000 H   0  0
    0.0000    2.5000    0.0000 H   0  0
   -2.1651    1.2500    0.0000 H   0  0
    0.0000   -2.5000    0.0000 H   0  0
   -3.9007    0.2475    0.0000 H   0  0
   -6.0637   -1.0060    0.0000 H   0  0
   -6.0597   -3.5059    0.0000 H   0  0
   -3.8927   -4.7525    0.0000 H   0  0
   -1.7296   -3.4991    0.0000 H   0  0
    9.9445  -12.2741    0.0000 H   0  0
    3.4642   -1.0046    0.0000 H   0  0
  1  2  1  0
  2  3  1  0
  3  4  2  0
  3  5  1  0
  5  6  2  0
  5  7  1  0
  7  8  1  0
  8  9  1  0
  9 10  1  0
 10 11  1  0
 11 12  1  0
 12 13  1  0
 13 14  2  0
 13 15  1  0
 15 16  1  0
 16 17  2  0
 17 18  1  0
 18 19  2  0
 19 20  1  0
 20 21  2  0
 16 21  1  0
 20 22  1  0
 22 23  2  0
 23 24  1  0
 24 25  2  0
 25 26  1  0
 26 27  2  0
 22 27  1  0
  1 28  1  0
  1 29  1  0
  1 30  1  0
  7 31  1  0
  7 32  1  0
  8 33  1  0
  8 34  1  0
  9 35  1  0
  9 36  1  0
 10 37  1  0
 10 38  1  0
 11 39  1  0
 11 40  1  0
 12 41  1  0
 12 42  1  0
 17 43  1  0
 18 44  1  0
 19 45  1  0
 21 46  1  0
 23 47  1  0
 24 48  1  0
 25 49  1  0
 26 50  1  0
 27 51  1  0
  2 52  1  0
 15 53  1  0
M  END
> <Name>
CHEMBL112446

> <ALogP>
3.593

> <Molecular_Weight>
366.45344

> <Num_H_Acceptors>
3

> <Num_H_Donors>
2

> <Num_RotatableBonds>
10

> <FormalCharge>
0

$$$$
CHEMBL505961
  SciTegic01131515592D

 56 59  0  0  0  0            999 V2000
    2.9050   -6.2297    0.0000 C   0  0
    4.0281   -5.2381    0.0000 C   0  0
    3.8933   -3.7570    0.0000 C   0  0
    2.5951   -3.0039    0.0000 C   0  0
    2.5973   -1.5031    0.0000 N   0  0
    1.2990   -0.7500    0.0000 C   0  0
    1.2990    0.7500    0.0000 C   0  0
    0.0000    1.5000    0.0000 C   0  0
   -1.2990    0.7500    0.0000 C   0  0
   -1.2990   -0.7500    0.0000 C   0  0
    0.0000   -1.5000    0.0000 C   0  0
   -2.6003    1.4977    0.0000 C   0  0
   -2.6024    2.6977    0.0000 O   0  0
   -3.8990    0.7455    0.0000 N   0  0
   -5.2003    1.4932    0.0000 C   0  0
   -6.4994    0.7432    0.0000 C   0  0
   -7.7985    1.4932    0.0000 C   0  0
   -7.7985    2.9932    0.0000 C   0  0
   -6.4995    3.7432    0.0000 C   0  0
   -5.2004    2.9933    0.0000 C   0  0
   -3.8992    3.7411    0.0000 N   0  0
   -9.0981    0.7428    0.0000 C   0  0
   -9.1006   -0.7573    0.0000 C   0  0
  -10.4008   -1.5053    0.0000 C   0  0
  -11.6987   -0.7532    0.0000 C   0  0
  -11.6963    0.7468    0.0000 C   0  0
  -10.3961    1.4947    0.0000 C   0  0
    5.2459   -3.1387    0.0000 C   0  0
    6.2473   -4.2555    0.0000 N   0  0
    5.4946   -5.5530    0.0000 N   0  0
    6.1012   -6.9229    0.0000 C   0  0
    1.9568   -5.9119    0.0000 H   0  0
    3.1036   -7.2097    0.0000 H   0  0
    2.1556   -6.8918    0.0000 H   0  0
    1.7282   -3.5024    0.0000 H   0  0
    1.7299   -2.5025    0.0000 H   0  0
    2.1651    1.2500    0.0000 H   0  0
    0.0000    2.5000    0.0000 H   0  0
   -2.1651   -1.2500    0.0000 H   0  0
    0.0000   -2.5000    0.0000 H   0  0
   -6.4994   -0.2568    0.0000 H   0  0
   -8.6646    3.4932    0.0000 H   0  0
   -6.4995    4.7432    0.0000 H   0  0
   -8.2354   -1.2587    0.0000 H   0  0
  -10.4023   -2.5053    0.0000 H   0  0
  -12.5655   -1.2519    0.0000 H   0  0
  -12.5616    1.2481    0.0000 H   0  0
  -10.3946    2.4947    0.0000 H   0  0
    5.4500   -2.1597    0.0000 H   0  0
    7.0955   -7.0301    0.0000 H   0  0
    5.5115   -7.7305    0.0000 H   0  0
    6.5057   -7.8375    0.0000 H   0  0
    3.4642   -1.0046    0.0000 H   0  0
   -3.8973   -0.2545    0.0000 H   0  0
   -3.0338    3.2399    0.0000 H   0  0
   -3.8975    4.7411    0.0000 H   0  0
  1  2  1  0
  2  3  2  0
  3  4  1  0
  4  5  1  0
  5  6  1  0
  6  7  2  0
  7  8  1  0
  8  9  2  0
  9 10  1  0
 10 11  2  0
  6 11  1  0
  9 12  1  0
 12 13  2  0
 12 14  1  0
 14 15  1  0
 15 16  2  0
 16 17  1  0
 17 18  2  0
 18 19  1  0
 19 20  2  0
 15 20  1  0
 20 21  1  0
 17 22  1  0
 22 23  2  0
 23 24  1  0
 24 25  2  0
 25 26  1  0
 26 27  2  0
 22 27  1  0
  3 28  1  0
 28 29  2  0
 29 30  1  0
  2 30  1  0
 30 31  1  0
  1 32  1  0
  1 33  1  0
  1 34  1  0
  4 35  1  0
  4 36  1  0
  7 37  1  0
  8 38  1  0
 10 39  1  0
 11 40  1  0
 16 41  1  0
 18 42  1  0
 19 43  1  0
 23 44  1  0
 24 45  1  0
 25 46  1  0
 26 47  1  0
 27 48  1  0
 28 49  1  0
 31 50  1  0
 31 51  1  0
 31 52  1  0
  5 53  1  0
 14 54  1  0
 21 55  1  0
 21 56  1  0
M  END
> <Name>
CHEMBL505961

> <ALogP>
3.574

> <Molecular_Weight>
411.4989

> <Num_H_Acceptors>
4

> <Num_H_Donors>
3

> <Num_RotatableBonds>
6

> <FormalCharge>
0

$$$$
CHEMBL400929
  SciTegic01131515592D

 58 61  0  0  0  0            999 V2000
   -4.3383  -20.5222    0.0000 N   0  0
   -5.8165  -20.2629    0.0000 C   0  0
   -6.7821  -21.4108    0.0000 C   0  0
   -8.2590  -21.1485    0.0000 C   0  0
   -8.7703  -19.7383    0.0000 C   0  0
   -7.8047  -18.5904    0.0000 C   0  0
   -6.3278  -18.8527    0.0000 C   0  0
   -5.3593  -17.7062    0.0000 N   0  0
   -3.8820  -17.9707    0.0000 C   0  0
   -3.4749  -19.0995    0.0000 O   0  0
   -2.9135  -16.8241    0.0000 C   0  0
   -1.4366  -17.0864    0.0000 C   0  0
   -0.4710  -15.9385    0.0000 C   0  0
   -0.9823  -14.5283    0.0000 C   0  0
   -0.0161  -13.3798    0.0000 C   0  0
    1.4617  -13.6413    0.0000 N   0  0
    2.4279  -12.4928    0.0000 C   0  0
    2.0185  -11.3648    0.0000 O   0  0
    3.9057  -12.7544    0.0000 C   0  0
    3.8703  -11.2752    0.0000 C   0  0
    5.1697  -10.5258    0.0000 C   0  0
    6.4684  -11.2764    0.0000 C   0  0
    6.4677  -12.7764    0.0000 C   0  0
    5.1683  -13.5258    0.0000 C   0  0
   -2.4592  -14.2660    0.0000 C   0  0
   -3.4248  -15.4139    0.0000 C   0  0
  -10.2479  -19.4759    0.0000 C   0  0
  -11.3084  -20.5187    0.0000 C   0  0
  -12.6308  -19.8108    0.0000 C   0  0
  -12.3662  -18.3343    0.0000 C   0  0
  -10.8802  -18.1297    0.0000 S   0  0
   -6.4412  -22.3509    0.0000 H   0  0
   -8.9027  -21.9137    0.0000 H   0  0
   -8.1456  -17.6503    0.0000 H   0  0
   -1.0957  -18.0265    0.0000 H   0  0
    0.5136  -16.1134    0.0000 H   0  0
    0.6272  -12.6143    0.0000 H   0  0
   -0.3573  -12.4398    0.0000 H   0  0
    3.9054  -13.7544    0.0000 H   0  0
    3.0219  -11.8046    0.0000 H   0  0
    3.8810  -10.2752    0.0000 H   0  0
    4.2923  -10.0460    0.0000 H   0  0
    6.0474  -10.0466    0.0000 H   0  0
    6.4452  -10.2766    0.0000 H   0  0
    7.3222  -11.7969    0.0000 H   0  0
    7.3219  -12.2564    0.0000 H   0  0
    6.4438  -13.7761    0.0000 H   0  0
    5.2035  -12.5264    0.0000 H   0  0
    6.0392  -14.0173    0.0000 H   0  0
   -2.8000  -13.3259    0.0000 H   0  0
   -4.4094  -15.2390    0.0000 H   0  0
  -11.1661  -21.5085    0.0000 H   0  0
  -13.5308  -20.2466    0.0000 H   0  0
  -13.0588  -17.6130    0.0000 H   0  0
   -3.6956  -19.7561    0.0000 H   0  0
   -3.9957  -21.4618    0.0000 H   0  0
   -5.6986  -16.7655    0.0000 H   0  0
    1.8029  -14.5814    0.0000 H   0  0
  1  2  1  0
  2  3  2  0
  3  4  1  0
  4  5  2  0
  5  6  1  0
  6  7  2  0
  2  7  1  0
  7  8  1  0
  8  9  1  0
  9 10  2  0
  9 11  1  0
 11 12  2  0
 12 13  1  0
 13 14  2  0
 14 15  1  0
 15 16  1  0
 16 17  1  0
 17 18  2  0
 17 19  1  0
 19 20  1  0
 20 21  1  0
 21 22  1  0
 22 23  1  0
 23 24  1  0
 19 24  1  0
 14 25  1  0
 25 26  2  0
 11 26  1  0
  5 27  1  0
 27 28  2  0
 28 29  1  0
 29 30  2  0
 30 31  1  0
 27 31  1  0
  3 32  1  0
  4 33  1  0
  6 34  1  0
 12 35  1  0
 13 36  1  0
 15 37  1  0
 15 38  1  0
 19 39  1  0
 20 40  1  0
 20 41  1  0
 21 42  1  0
 21 43  1  0
 22 44  1  0
 22 45  1  0
 23 46  1  0
 23 47  1  0
 24 48  1  0
 24 49  1  0
 25 50  1  0
 26 51  1  0
 28 52  1  0
 29 53  1  0
 30 54  1  0
  1 55  1  0
  1 56  1  0
  8 57  1  0
 16 58  1  0
M  END
> <Name>
CHEMBL400929

> <ALogP>
4.593

> <Molecular_Weight>
433.56578

> <Num_H_Acceptors>
3

> <Num_H_Donors>
3

> <Num_RotatableBonds>
6

> <FormalCharge>
0

$$$$
CHEMBL263570
  SciTegic01131515592D

 38 40  0  0  0  0            999 V2000
    4.5250   -7.2514    0.0000 O   0  0
    3.9195   -5.8781    0.0000 N   0  0
    4.8054   -4.6666    0.0000 C   0  0
    5.9984   -4.7960    0.0000 O   0  0
    4.2010   -3.2956    0.0000 C   0  0
    4.9531   -1.9978    0.0000 C   0  0
    3.9511   -0.8815    0.0000 C   0  0
    2.5987   -1.5004    0.0000 C   0  0
    2.7343   -2.9815    0.0000 S   0  0
    1.2990   -0.7500    0.0000 C   0  0
    1.2990    0.7500    0.0000 C   0  0
    0.0000    1.5000    0.0000 C   0  0
   -1.2990    0.7500    0.0000 C   0  0
   -2.5988    1.5004    0.0000 C   0  0
   -2.5998    3.0012    0.0000 N   0  0
   -3.8995    3.7516    0.0000 C   0  0
   -3.9027    5.2517    0.0000 C   0  0
   -5.2032    5.9990    0.0000 C   0  0
   -6.5007    5.2464    0.0000 C   0  0
   -6.4977    3.7464    0.0000 C   0  0
   -5.1971    2.9990    0.0000 C   0  0
   -1.2990   -0.7500    0.0000 C   0  0
    0.0000   -1.5000    0.0000 N   0  0
    5.9477   -1.8948    0.0000 H   0  0
    4.1548    0.0976    0.0000 H   0  0
    2.1651    1.2500    0.0000 H   0  0
    0.0000    2.5000    0.0000 H   0  0
   -3.4647    1.0001    0.0000 H   0  0
   -3.4651    2.0000    0.0000 H   0  0
   -3.0377    5.7535    0.0000 H   0  0
   -5.2053    6.9990    0.0000 H   0  0
   -7.3678    5.7446    0.0000 H   0  0
   -7.3627    3.2446    0.0000 H   0  0
   -5.1951    1.9990    0.0000 H   0  0
   -2.1651   -1.2500    0.0000 H   0  0
    3.9347   -8.0586    0.0000 H   0  0
    2.9254   -5.7703    0.0000 H   0  0
   -1.7339    3.5015    0.0000 H   0  0
  1  2  1  0
  2  3  1  0
  3  4  2  0
  3  5  1  0
  5  6  2  0
  6  7  1  0
  7  8  2  0
  8  9  1  0
  5  9  1  0
  8 10  1  0
 10 11  2  0
 11 12  1  0
 12 13  2  0
 13 14  1  0
 14 15  1  0
 15 16  1  0
 16 17  2  0
 17 18  1  0
 18 19  2  0
 19 20  1  0
 20 21  2  0
 16 21  1  0
 13 22  1  0
 22 23  2  0
 10 23  1  0
  6 24  1  0
  7 25  1  0
 11 26  1  0
 12 27  1  0
 14 28  1  0
 14 29  1  0
 17 30  1  0
 18 31  1  0
 19 32  1  0
 20 33  1  0
 21 34  1  0
 22 35  1  0
  1 36  1  0
  2 37  1  0
 15 38  1  0
M  END
> <Name>
CHEMBL263570

> <ALogP>
3.278

> <Molecular_Weight>
325.3849

> <Num_H_Acceptors>
4

> <Num_H_Donors>
3

> <Num_RotatableBonds>
5

> <FormalCharge>
0

$$$$
CHEMBL400044
  SciTegic01131515592D

 56 59  0  0  0  0            999 V2000
    2.5973   -1.5031    0.0000 N   0  0
    1.2990   -0.7500    0.0000 C   0  0
    1.2990    0.7500    0.0000 C   0  0
    0.0000    1.5000    0.0000 C   0  0
   -1.2990    0.7500    0.0000 C   0  0
   -1.2990   -0.7500    0.0000 C   0  0
    0.0000   -1.5000    0.0000 C   0  0
    0.0031   -3.0008    0.0000 N   0  0
    1.3039   -3.7494    0.0000 C   0  0
    2.3421   -3.1476    0.0000 O   0  0
    1.3070   -5.2502    0.0000 C   0  0
    2.6060   -6.0003    0.0000 C   0  0
    2.6061   -7.5003    0.0000 C   0  0
    1.3071   -8.2503    0.0000 C   0  0
    1.3071   -9.7511    0.0000 C   0  0
    2.6064  -10.5023    0.0000 N   0  0
    2.6064  -12.0032    0.0000 C   0  0
    1.5670  -12.6029    0.0000 O   0  0
    3.9057  -12.7544    0.0000 O   0  0
    3.9058  -14.2552    0.0000 C   0  0
    5.2033  -15.0079    0.0000 C   0  0
    5.2003  -16.5079    0.0000 C   0  0
    3.8997  -17.2553    0.0000 C   0  0
    2.6022  -16.5027    0.0000 C   0  0
    2.6052  -15.0027    0.0000 C   0  0
    0.0080   -7.5003    0.0000 C   0  0
    0.0080   -6.0003    0.0000 C   0  0
   -2.5987    1.5004    0.0000 C   0  0
   -2.6012    3.0004    0.0000 C   0  0
   -3.9015    3.7484    0.0000 C   0  0
   -5.1993    2.9963    0.0000 C   0  0
   -5.1969    1.4963    0.0000 C   0  0
   -3.8967    0.7484    0.0000 C   0  0
    2.1651    1.2500    0.0000 H   0  0
    0.0000    2.5000    0.0000 H   0  0
   -2.1651   -1.2500    0.0000 H   0  0
    3.4721   -5.5003    0.0000 H   0  0
    3.4721   -8.0003    0.0000 H   0  0
    1.3067  -10.7511    0.0000 H   0  0
    0.4409  -10.2509    0.0000 H   0  0
    6.0703  -14.5097    0.0000 H   0  0
    6.0653  -17.0096    0.0000 H   0  0
    3.8977  -18.2553    0.0000 H   0  0
    1.7352  -17.0009    0.0000 H   0  0
    1.7402  -14.5009    0.0000 H   0  0
   -0.8580   -8.0004    0.0000 H   0  0
   -0.8581   -5.5004    0.0000 H   0  0
   -1.7360    3.5018    0.0000 H   0  0
   -3.9030    4.7484    0.0000 H   0  0
   -6.0661    3.4949    0.0000 H   0  0
   -6.0621    0.9949    0.0000 H   0  0
   -3.8951   -0.2516    0.0000 H   0  0
    2.5958   -2.5031    0.0000 H   0  0
    3.4642   -1.0046    0.0000 H   0  0
   -0.8621   -3.5023    0.0000 H   0  0
    3.4726  -10.0026    0.0000 H   0  0
  1  2  1  0
  2  3  2  0
  3  4  1  0
  4  5  2  0
  5  6  1  0
  6  7  2  0
  2  7  1  0
  7  8  1  0
  8  9  1  0
  9 10  2  0
  9 11  1  0
 11 12  2  0
 12 13  1  0
 13 14  2  0
 14 15  1  0
 15 16  1  0
 16 17  1  0
 17 18  2  0
 17 19  1  0
 19 20  1  0
 20 21  2  0
 21 22  1  0
 22 23  2  0
 23 24  1  0
 24 25  2  0
 20 25  1  0
 14 26  1  0
 26 27  2  0
 11 27  1  0
  5 28  1  0
 28 29  2  0
 29 30  1  0
 30 31  2  0
 31 32  1  0
 32 33  2  0
 28 33  1  0
  3 34  1  0
  4 35  1  0
  6 36  1  0
 12 37  1  0
 13 38  1  0
 15 39  1  0
 15 40  1  0
 21 41  1  0
 22 42  1  0
 23 43  1  0
 24 44  1  0
 25 45  1  0
 26 46  1  0
 27 47  1  0
 29 48  1  0
 30 49  1  0
 31 50  1  0
 32 51  1  0
 33 52  1  0
  1 53  1  0
  1 54  1  0
  8 55  1  0
 16 56  1  0
M  END
> <Name>
CHEMBL400044

> <ALogP>
4.733

> <Molecular_Weight>
437.48982

> <Num_H_Acceptors>
4

> <Num_H_Donors>
3

> <Num_RotatableBonds>
7

> <FormalCharge>
0

$$$$
CHEMBL1093052
  SciTegic01131515592D

 63 67  0  0  0  0            999 V2000
   -6.7777  -12.6717    0.0000 O   0  0
   -5.7775  -11.5527    0.0000 N   0  0
   -4.3082  -11.8585    0.0000 C   0  0
   -3.9328  -12.9983    0.0000 O   0  0
   -3.3080  -10.7395    0.0000 C   0  0
   -1.8387  -11.0452    0.0000 C   0  0
   -0.8385   -9.9262    0.0000 C   0  0
    0.6305  -10.2297    0.0000 C   0  0
    1.6278   -9.1093    0.0000 C   0  0
    1.1562   -7.6854    0.0000 C   0  0
    2.1540   -6.5643    0.0000 C   0  0
    1.6830   -5.1393    0.0000 N   0  0
    0.2142   -4.8349    0.0000 C   0  0
   -0.2566   -3.4107    0.0000 C   0  0
    0.7415   -2.2909    0.0000 C   0  0
    2.1826   -2.6263    0.0000 C   0  0
    2.6810   -4.0195    0.0000 C   0  0
    2.2288   -1.1288    0.0000 C   0  0
    3.4689   -0.2802    0.0000 C   0  0
    3.0519    1.1327    0.0000 N   0  0
    1.5597    1.1908    0.0000 C   0  0
    0.6052    2.3531    0.0000 C   0  0
   -0.8903    2.0825    0.0000 C   0  0
   -1.4016    0.6776    0.0000 C   0  0
   -0.4300   -0.4909    0.0000 C   0  0
    1.0483   -0.2141    0.0000 C   0  0
    4.8828   -0.7833    0.0000 C   0  0
    6.0907    0.0976    0.0000 C   0  0
    7.4618   -0.5109    0.0000 C   0  0
    7.6204   -2.0025    0.0000 C   0  0
    6.4079   -2.8856    0.0000 C   0  0
    5.0369   -2.2771    0.0000 C   0  0
   -0.3128   -7.3819    0.0000 C   0  0
   -0.6902   -6.2428    0.0000 F   0  0
   -1.3101   -8.5023    0.0000 C   0  0
   -3.6208   -9.7897    0.0000 H   0  0
   -1.5259  -11.9951    0.0000 H   0  0
    0.9449  -11.1790    0.0000 H   0  0
    2.6071   -9.3116    0.0000 H   0  0
    3.1333   -6.7670    0.0000 H   0  0
    2.4683   -7.5137    0.0000 H   0  0
   -0.7599   -4.6089    0.0000 H   0  0
    0.5503   -5.7768    0.0000 H   0  0
    0.7272   -3.5905    0.0000 H   0  0
   -0.5480   -2.4541    0.0000 H   0  0
    1.4323   -1.5679    0.0000 H   0  0
   -0.2398   -2.0981    0.0000 H   0  0
    3.1620   -2.8283    0.0000 H   0  0
    1.6954   -3.8507    0.0000 H   0  0
    2.9851   -4.9722    0.0000 H   0  0
    0.9501    3.2917    0.0000 H   0  0
   -1.5348    2.8471    0.0000 H   0  0
   -2.3868    0.5062    0.0000 H   0  0
   -0.7691   -1.4316    0.0000 H   0  0
    5.9847    1.0920    0.0000 H   0  0
    8.2701    0.0779    0.0000 H   0  0
    8.5344   -2.4081    0.0000 H   0  0
    6.5136   -3.8800    0.0000 H   0  0
    4.2276   -2.8646    0.0000 H   0  0
   -2.2895   -8.3000    0.0000 H   0  0
   -7.7567  -12.4680    0.0000 H   0  0
   -6.0903  -10.6029    0.0000 H   0  0
    3.6661    1.9219    0.0000 H   0  0
  1  2  1  0
  2  3  1  0
  3  4  2  0
  3  5  1  0
  5  6  2  0
  6  7  1  0
  7  8  2  0
  8  9  1  0
  9 10  2  0
 10 11  1  0
 11 12  1  0
 12 13  1  0
 13 14  1  0
 14 15  1  0
 15 16  1  0
 16 17  1  0
 12 17  1  0
 16 18  1  0
 18 19  2  0
 19 20  1  0
 20 21  1  0
 21 22  2  0
 22 23  1  0
 23 24  2  0
 24 25  1  0
 25 26  2  0
 18 26  1  0
 21 26  1  0
 19 27  1  0
 27 28  2  0
 28 29  1  0
 29 30  2  0
 30 31  1  0
 31 32  2  0
 27 32  1  0
 10 33  1  0
 33 34  1  0
 33 35  2  0
  7 35  1  0
  5 36  1  0
  6 37  1  0
  8 38  1  0
  9 39  1  0
 11 40  1  0
 11 41  1  0
 13 42  1  0
 13 43  1  0
 14 44  1  0
 14 45  1  0
 15 46  1  0
 15 47  1  0
 16 48  1  0
 17 49  1  0
 17 50  1  0
 22 51  1  0
 23 52  1  0
 24 53  1  0
 25 54  1  0
 28 55  1  0
 29 56  1  0
 30 57  1  0
 31 58  1  0
 32 59  1  0
 35 60  1  0
  1 61  1  0
  2 62  1  0
 20 63  1  0
M  STY  1   1 DAT
M  SAL   1  1  20
M  SDT   1 MRV_IMPLICIT_H
M  SDD   1     0.0000    0.0000    DR    ALL  0       0
M  SED   1 IMPL_H1
M  END
> <Name>
CHEMBL1093052

> <ALogP>
5.963

> <Molecular_Weight>
469.54992

> <Num_H_Acceptors>
3

> <Num_H_Donors>
3

> <Num_RotatableBonds>
6

> <FormalCharge>
0

$$$$
CHEMBL393361
  SciTegic01131515592D

 63 63  0  0  1  0            999 V2000
    4.7317    4.3661    0.0000 C   0  0
    3.2603    4.0707    0.0000 C   0  0
    2.2691    5.1975    0.0000 C   0  0
    2.7184    2.7184    0.0000 C   0  0  1  0  0  0
    1.4712    3.5517    0.0000 N   0  0
    0.0000    3.8444    0.0000 C   0  0
    0.0000    4.8444    0.0000 O   0  0
   -1.4712    3.5517    0.0000 C   0  0  1  0  0  0
   -0.5219    4.6568    0.0000 C   0  0
   -2.7184    2.7184    0.0000 N   0  0
   -3.5517    1.4712    0.0000 C   0  0
   -4.4756    1.8538    0.0000 O   0  0
   -3.8444    0.0000    0.0000 C   0  0  1  0  0  0
   -4.5021    1.2999    0.0000 C   0  0
   -3.5517   -1.4712    0.0000 N   0  0
   -2.7184   -2.7184    0.0000 C   0  0
   -3.5669   -3.5669    0.0000 O   0  0
   -1.4712   -3.5517    0.0000 C   0  0
    0.0000   -3.8444    0.0000 C   0  0  2  0  0  0
    1.4712   -3.5517    0.0000 O   0  0
    2.7184   -2.7184    0.0000 C   0  0
    3.5669   -3.5669    0.0000 O   0  0
    3.5517   -1.4712    0.0000 C   0  0
    3.8444    0.0000    0.0000 N   0  0
    3.5517    1.4712    0.0000 C   0  0
    4.6604    1.9304    0.0000 O   0  0
   -0.5730   -5.1838    0.0000 C   0  0
    0.2586   -6.4331    0.0000 C   0  0
   -0.8268   -7.4697    0.0000 C   0  0
   -0.9929   -8.9613    0.0000 C   0  0
   -2.3673   -9.5642    0.0000 S   0  0
    5.0521    5.3134    0.0000 H   0  0
    5.7123    4.5625    0.0000 H   0  0
    5.3922    3.6152    0.0000 H   0  0
    3.5802    5.0181    0.0000 H   0  0
    2.5885    6.1451    0.0000 H   0  0
    1.2887    5.0007    0.0000 H   0  0
    1.6083    5.9481    0.0000 H   0  0
    3.6686    2.4067    0.0000 H   0  0
   -2.4683    3.6274    0.0000 H   0  0
    0.4696    4.5268    0.0000 H   0  0
    0.0865    5.4504    0.0000 H   0  0
   -0.9048    5.5806    0.0000 H   0  0
   -4.2958   -0.8923    0.0000 H   0  0
   -4.0025    2.1661    0.0000 H   0  0
   -5.0024    2.1657    0.0000 H   0  0
   -5.5021    1.2997    0.0000 H   0  0
   -0.8203   -4.3110    0.0000 H   0  0
   -2.4682   -3.6284    0.0000 H   0  0
    0.8923   -4.2958    0.0000 H   0  0
    3.6284   -2.4682    0.0000 H   0  0
    4.3110   -0.8204    0.0000 H   0  0
   -1.5710   -5.2477    0.0000 H   0  0
    1.2565   -6.3692    0.0000 H   0  0
   -1.0632   -6.4981    0.0000 H   0  0
   -1.7864   -7.1885    0.0000 H   0  0
   -1.1030   -9.9552    0.0000 H   0  0
   -0.1873   -9.5538    0.0000 H   0  0
    1.8538    4.4756    0.0000 H   0  0
   -3.4255    3.4255    0.0000 H   0  0
   -4.4756   -1.8539    0.0000 H   0  0
    4.8444    0.0000    0.0000 H   0  0
   -2.4779  -10.5580    0.0000 H   0  0
  1  2  1  0
  2  3  1  0
  4  2  1  0
  4  5  1  0
  5  6  1  0
  6  7  2  0
  6  8  1  0
  8  9  1  0
  8 10  1  0
 10 11  1  0
 11 12  2  0
 11 13  1  0
 13 14  1  0
 13 15  1  0
 15 16  1  0
 16 17  2  0
 16 18  1  0
 18 19  1  0
 19 20  1  0
 20 21  1  0
 21 22  2  0
 21 23  1  0
 23 24  1  0
 24 25  1  0
  4 25  1  0
 25 26  2  0
 19 27  1  0
 27 28  2  0
 28 29  1  0
 29 30  1  0
 30 31  1  0
  1 32  1  0
  1 33  1  0
  1 34  1  0
  2 35  1  0
  3 36  1  0
  3 37  1  0
  3 38  1  0
  4 39  1  1
  8 40  1  1
  9 41  1  0
  9 42  1  0
  9 43  1  0
 13 44  1  1
 14 45  1  0
 14 46  1  0
 14 47  1  0
 18 48  1  0
 18 49  1  0
 19 50  1  1
 23 51  1  0
 23 52  1  0
 27 53  1  0
 28 54  1  0
 29 55  1  0
 29 56  1  0
 30 57  1  0
 30 58  1  0
  5 59  1  0
 10 60  1  0
 15 61  1  0
 24 62  1  0
 31 63  1  0
M  END
> <Name>
CHEMBL393361

> <ALogP>
-0.261

> <Molecular_Weight>
456.55628

> <Num_H_Acceptors>
7

> <Num_H_Donors>
5

> <Num_RotatableBonds>
4

> <FormalCharge>
0

$$$$
CHEMBL246586
  SciTegic01131515592D

 57 58  0  0  1  0            999 V2000
   13.0113  -10.5014    0.0000 O   0  0
   11.7107   -9.7524    0.0000 N   0  0
   11.7082   -8.2516    0.0000 C   0  0
   12.7465   -7.6502    0.0000 O   0  0
   10.4076   -7.5026    0.0000 C   0  0
   10.4050   -6.0018    0.0000 C   0  0
    9.1045   -5.2528    0.0000 C   0  0
    9.1019   -3.7520    0.0000 C   0  0
    7.8013   -3.0030    0.0000 C   0  0
    7.7987   -1.5021    0.0000 C   0  0  2  0  0  0
    6.4990   -0.7516    0.0000 N   0  0
    5.1988   -1.5012    0.0000 C   0  0
    5.1984   -2.7012    0.0000 O   0  0
    3.8990   -0.7508    0.0000 O   0  0
    2.5988   -1.5004    0.0000 C   0  0
    1.2990   -0.7500    0.0000 C   0  0
    1.2990    0.7500    0.0000 C   0  0
    0.0000    1.5000    0.0000 C   0  0
   -1.2990    0.7500    0.0000 C   0  0
   -1.2990   -0.7500    0.0000 C   0  0
    0.0000   -1.5000    0.0000 C   0  0
    9.0990   -0.7525    0.0000 C   0  0
    9.0993    0.4475    0.0000 O   0  0
   10.3987   -1.5029    0.0000 N   0  0
   11.6990   -0.7533    0.0000 C   0  0
   12.9991   -1.5014    0.0000 C   0  0
   14.2971   -0.7496    0.0000 C   0  0
   14.2950    0.7504    0.0000 C   0  0
   12.9949    1.4986    0.0000 C   0  0
   11.6969    0.7468    0.0000 C   0  0
    9.5423   -8.0038    0.0000 H   0  0
   10.4088   -8.5026    0.0000 H   0  0
   11.2703   -5.5006    0.0000 H   0  0
   10.4038   -5.0018    0.0000 H   0  0
    8.2391   -5.7540    0.0000 H   0  0
    8.2376   -4.7541    0.0000 H   0  0
    9.9672   -3.2508    0.0000 H   0  0
    9.1006   -2.7520    0.0000 H   0  0
    6.9360   -3.5042    0.0000 H   0  0
    6.9345   -2.5043    0.0000 H   0  0
    7.7991   -0.5021    0.0000 H   0  0
    3.4646   -2.0008    0.0000 H   0  0
    2.5985   -2.5004    0.0000 H   0  0
    2.1651    1.2500    0.0000 H   0  0
    0.0000    2.5000    0.0000 H   0  0
   -2.1651    1.2500    0.0000 H   0  0
   -2.1651   -1.2500    0.0000 H   0  0
    0.0000   -2.5000    0.0000 H   0  0
   13.0006   -2.5014    0.0000 H   0  0
   15.1638   -1.2484    0.0000 H   0  0
   15.1603    1.2516    0.0000 H   0  0
   12.9935    2.4986    0.0000 H   0  0
   10.8302    1.2456    0.0000 H   0  0
   13.0130  -11.5014    0.0000 H   0  0
   10.8454  -10.2537    0.0000 H   0  0
    6.4993    0.2484    0.0000 H   0  0
   10.3984   -2.5029    0.0000 H   0  0
  1  2  1  0
  2  3  1  0
  3  4  2  0
  3  5  1  0
  5  6  1  0
  6  7  1  0
  7  8  1  0
  8  9  1  0
  9 10  1  0
 10 11  1  0
 11 12  1  0
 12 13  2  0
 12 14  1  0
 14 15  1  0
 15 16  1  0
 16 17  2  0
 17 18  1  0
 18 19  2  0
 19 20  1  0
 20 21  2  0
 16 21  1  0
 10 22  1  0
 22 23  2  0
 22 24  1  0
 24 25  1  0
 25 26  2  0
 26 27  1  0
 27 28  2  0
 28 29  1  0
 29 30  2  0
 25 30  1  0
  5 31  1  0
  5 32  1  0
  6 33  1  0
  6 34  1  0
  7 35  1  0
  7 36  1  0
  8 37  1  0
  8 38  1  0
  9 39  1  0
  9 40  1  0
 10 41  1  1
 15 42  1  0
 15 43  1  0
 17 44  1  0
 18 45  1  0
 19 46  1  0
 20 47  1  0
 21 48  1  0
 26 49  1  0
 27 50  1  0
 28 51  1  0
 29 52  1  0
 30 53  1  0
  1 54  1  0
  2 55  1  0
 11 56  1  0
 24 57  1  0
M  END
> <Name>
CHEMBL246586

> <ALogP>
3.176

> <Molecular_Weight>
413.46688

> <Num_H_Acceptors>
5

> <Num_H_Donors>
4

> <Num_RotatableBonds>
12

> <FormalCharge>
0

$$$$
CHEMBL271799
  SciTegic01131515592D

 75 78  0  0  1  0            999 V2000
   -3.6267    2.9927    0.0000 C   0  0
   -3.6187    1.4919    0.0000 O   0  0
   -2.3155    0.7475    0.0000 C   0  0
   -2.3155   -0.7475    0.0000 C   0  0
   -1.0028   -1.5132    0.0000 C   0  0
    0.2917   -0.7475    0.0000 C   0  0
    1.7138   -1.2033    0.0000 N   0  0
    2.5889    0.0182    0.0000 C   0  0
    4.0872    0.0351    0.0000 C   0  0
    1.7138    1.2033    0.0000 C   0  0
    2.1783    2.6281    0.0000 C   0  0
    3.6464    2.9395    0.0000 N   0  0
    4.1116    4.3665    0.0000 C   0  0  1  0  0  0
    3.1104    5.4846    0.0000 C   0  0
    3.5772    6.9110    0.0000 C   0  0
    2.5760    8.0290    0.0000 C   0  0
    3.0428    9.4554    0.0000 C   0  0
    2.0417   10.5735    0.0000 C   0  0
    2.5085   11.9999    0.0000 C   0  0
    3.6828   12.2465    0.0000 O   0  0
    1.5073   13.1180    0.0000 C   0  0
    5.5798    4.6779    0.0000 C   0  0
    6.3821    3.7855    0.0000 O   0  0
    6.0451    6.1048    0.0000 N   0  0
    7.5132    6.4162    0.0000 C   0  0
    7.9803    7.8417    0.0000 C   0  0
    9.4483    8.1500    0.0000 C   0  0
   10.4493    7.0328    0.0000 C   0  0
    9.9823    5.6073    0.0000 C   0  0
    8.5143    5.2991    0.0000 C   0  0
   10.9838    4.4896    0.0000 C   0  0
   12.4523    4.7955    0.0000 C   0  0
   13.4515    3.6768    0.0000 C   0  0
   12.9822    2.2521    0.0000 C   0  0
   11.5138    1.9461    0.0000 C   0  0
   10.5146    3.0648    0.0000 C   0  0
    0.2917    0.7475    0.0000 C   0  0
   -1.0028    1.5132    0.0000 C   0  0
   -4.4951    3.4886    0.0000 H   0  0
   -2.7632    3.4971    0.0000 H   0  0
   -3.6316    3.9927    0.0000 H   0  0
   -3.1826   -1.2456    0.0000 H   0  0
   -0.9997   -2.5132    0.0000 H   0  0
    4.5976   -0.8248    0.0000 H   0  0
    4.5770    0.9069    0.0000 H   0  0
    5.0871    0.0470    0.0000 H   0  0
    2.4878    3.5790    0.0000 H   0  0
    1.5097    3.3717    0.0000 H   0  0
    4.4221    5.3170    0.0000 H   0  0
    2.1318    5.2790    0.0000 H   0  0
    2.7989    4.5343    0.0000 H   0  0
    4.5559    7.1165    0.0000 H   0  0
    4.2446    6.1663    0.0000 H   0  0
    1.5974    7.8235    0.0000 H   0  0
    2.2646    7.0788    0.0000 H   0  0
    4.0215    9.6610    0.0000 H   0  0
    3.7103    8.7108    0.0000 H   0  0
    1.0630   10.3680    0.0000 H   0  0
    1.3742   11.3182    0.0000 H   0  0
    1.8183   14.0684    0.0000 H   0  0
    0.5286   12.9125    0.0000 H   0  0
    0.8398   13.8627    0.0000 H   0  0
    7.3130    8.5865    0.0000 H   0  0
    9.7596    9.1003    0.0000 H   0  0
   11.4279    7.2383    0.0000 H   0  0
    8.2030    4.3487    0.0000 H   0  0
   12.7652    5.7453    0.0000 H   0  0
   14.4305    3.8807    0.0000 H   0  0
   13.6484    1.5062    0.0000 H   0  0
   11.2009    0.9963    0.0000 H   0  0
    9.5356    2.8608    0.0000 H   0  0
   -0.9997    2.5132    0.0000 H   0  0
    2.0279   -2.1527    0.0000 H   0  0
    4.3150    2.1959    0.0000 H   0  0
    5.3765    6.8484    0.0000 H   0  0
  1  2  1  0
  2  3  1  0
  3  4  2  0
  4  5  1  0
  5  6  2  0
  6  7  1  0
  7  8  1  0
  8  9  1  0
  8 10  2  0
 10 11  1  0
 11 12  1  0
 13 12  1  0
 13 14  1  0
 14 15  1  0
 15 16  1  0
 16 17  1  0
 17 18  1  0
 18 19  1  0
 19 20  2  0
 19 21  1  0
 13 22  1  0
 22 23  2  0
 22 24  1  0
 24 25  1  0
 25 26  2  0
 26 27  1  0
 27 28  2  0
 28 29  1  0
 29 30  2  0
 25 30  1  0
 29 31  1  0
 31 32  2  0
 32 33  1  0
 33 34  2  0
 34 35  1  0
 35 36  2  0
 31 36  1  0
 10 37  1  0
  6 37  1  0
 37 38  2  0
  3 38  1  0
  1 39  1  0
  1 40  1  0
  1 41  1  0
  4 42  1  0
  5 43  1  0
  9 44  1  0
  9 45  1  0
  9 46  1  0
 11 47  1  0
 11 48  1  0
 13 49  1  6
 14 50  1  0
 14 51  1  0
 15 52  1  0
 15 53  1  0
 16 54  1  0
 16 55  1  0
 17 56  1  0
 17 57  1  0
 18 58  1  0
 18 59  1  0
 21 60  1  0
 21 61  1  0
 21 62  1  0
 26 63  1  0
 27 64  1  0
 28 65  1  0
 30 66  1  0
 32 67  1  0
 33 68  1  0
 34 69  1  0
 35 70  1  0
 36 71  1  0
 38 72  1  0
  7 73  1  0
 12 74  1  0
 24 75  1  0
M  STY  1   1 DAT
M  SAL   1  1   7
M  SDT   1 MRV_IMPLICIT_H
M  SDD   1     0.0000    0.0000    DR    ALL  0       0
M  SED   1 IMPL_H1
M  END
> <Name>
CHEMBL271799

> <ALogP>
5.6

> <Molecular_Weight>
511.65448

> <Num_H_Acceptors>
4

> <Num_H_Donors>
3

> <Num_RotatableBonds>
13

> <FormalCharge>
0

$$$$
CHEMBL403100
  SciTegic01131515592D

 43 45  0  0  0  0            999 V2000
    3.8933   -3.7570    0.0000 C   0  0
    2.5951   -3.0039    0.0000 C   0  0
    1.5548   -3.6021    0.0000 O   0  0
    2.5973   -1.5031    0.0000 N   0  0
    1.2990   -0.7500    0.0000 C   0  0
    1.2990    0.7500    0.0000 C   0  0
    0.0000    1.5000    0.0000 C   0  0
   -1.2990    0.7500    0.0000 C   0  0
   -1.2990   -0.7500    0.0000 C   0  0
    0.0000   -1.5000    0.0000 C   0  0
   -2.6003    1.4977    0.0000 C   0  0
   -2.6024    2.6977    0.0000 O   0  0
   -3.8990    0.7455    0.0000 N   0  0
   -5.2003    1.4932    0.0000 C   0  0
   -6.4994    0.7432    0.0000 C   0  0
   -7.7985    1.4932    0.0000 C   0  0
   -7.7985    2.9932    0.0000 C   0  0
   -6.4995    3.7432    0.0000 C   0  0
   -5.2004    2.9933    0.0000 C   0  0
   -4.1612    3.5933    0.0000 O   0  5
   -9.0981    0.7428    0.0000 C   0  0
   -9.1006   -0.7573    0.0000 C   0  0
  -10.4008   -1.5053    0.0000 C   0  0
  -11.6987   -0.7532    0.0000 C   0  0
  -11.6963    0.7468    0.0000 C   0  0
  -10.3961    1.4947    0.0000 C   0  0
    3.8919   -4.7570    0.0000 H   0  0
    4.7586   -4.2584    0.0000 H   0  0
    4.7602   -3.2585    0.0000 H   0  0
    2.1651    1.2500    0.0000 H   0  0
    0.0000    2.5000    0.0000 H   0  0
   -2.1651   -1.2500    0.0000 H   0  0
    0.0000   -2.5000    0.0000 H   0  0
   -6.4994   -0.2568    0.0000 H   0  0
   -8.6646    3.4932    0.0000 H   0  0
   -6.4995    4.7432    0.0000 H   0  0
   -8.2354   -1.2587    0.0000 H   0  0
  -10.4023   -2.5053    0.0000 H   0  0
  -12.5655   -1.2519    0.0000 H   0  0
  -12.5616    1.2481    0.0000 H   0  0
  -10.3946    2.4947    0.0000 H   0  0
    3.4642   -1.0046    0.0000 H   0  0
   -3.8973   -0.2545    0.0000 H   0  0
  1  2  1  0
  2  3  2  0
  2  4  1  0
  4  5  1  0
  5  6  2  0
  6  7  1  0
  7  8  2  0
  8  9  1  0
  9 10  2  0
  5 10  1  0
  8 11  1  0
 11 12  2  0
 11 13  1  0
 13 14  1  0
 14 15  2  0
 15 16  1  0
 16 17  2  0
 17 18  1  0
 18 19  2  0
 14 19  1  0
 19 20  1  0
 16 21  1  0
 21 22  2  0
 22 23  1  0
 23 24  2  0
 24 25  1  0
 25 26  2  0
 21 26  1  0
  1 27  1  0
  1 28  1  0
  1 29  1  0
  6 30  1  0
  7 31  1  0
  9 32  1  0
 10 33  1  0
 15 34  1  0
 17 35  1  0
 18 36  1  0
 22 37  1  0
 23 38  1  0
 24 39  1  0
 25 40  1  0
 26 41  1  0
  4 42  1  0
 13 43  1  0
M  CHG  1  20  -1
M  END
> <Name>
CHEMBL403100

> <ALogP>
2.308

> <Molecular_Weight>
345.37128

> <Num_H_Acceptors>
3

> <Num_H_Donors>
2

> <Num_RotatableBonds>
4

> <FormalCharge>
-1

$$$$
CHEMBL2048750
  SciTegic01131515592D

 46 48  0  0  0  0            999 V2000
    8.5303   -5.2758    0.0000 C   0  0
    8.0579   -3.8512    0.0000 O   0  0
    6.5882   -3.5472    0.0000 C   0  0
    5.5882   -4.6653    0.0000 C   0  0
    4.1200   -4.3584    0.0000 C   0  0
    3.6516   -2.9334    0.0000 C   0  0
    4.6515   -1.8153    0.0000 C   0  0
    6.1198   -2.1222    0.0000 C   0  0
    7.1226   -1.0055    0.0000 O   0  0
    8.5912   -1.3147    0.0000 C   0  0
    2.1825   -2.6263    0.0000 S   0  0
    1.3829   -3.5211    0.0000 O   0  0
    2.5574   -3.7663    0.0000 O   0  0
    1.7138   -1.2033    0.0000 N   0  0
    2.5889    0.0182    0.0000 C   0  0
    1.7138    1.2033    0.0000 C   0  0
    0.2917    0.7475    0.0000 C   0  0
   -1.0028    1.5132    0.0000 C   0  0
   -2.3155    0.7475    0.0000 C   0  0
   -3.6217    1.4865    0.0000 C   0  0
   -4.9153    0.7255    0.0000 C   0  0
   -6.2216    1.4644    0.0000 C   0  0
   -6.2318    2.6643    0.0000 O   0  0
   -7.5151    0.7033    0.0000 N   0  0
   -8.8215    1.4422    0.0000 O   0  0
   -2.3155   -0.7475    0.0000 C   0  0
   -1.0028   -1.5132    0.0000 C   0  0
    0.2917   -0.7475    0.0000 C   0  0
    9.5096   -5.4784    0.0000 H   0  0
    7.8655   -6.0228    0.0000 H   0  0
    8.8447   -6.2251    0.0000 H   0  0
    5.9005   -5.6153    0.0000 H   0  0
    3.4534   -5.1038    0.0000 H   0  0
    4.3393   -0.8653    0.0000 H   0  0
    9.2594   -0.5707    0.0000 H   0  0
    8.9018   -2.2652    0.0000 H   0  0
    9.5697   -1.5211    0.0000 H   0  0
    3.5889    0.0254    0.0000 H   0  0
    2.0210    2.1549    0.0000 H   0  0
   -0.9997    2.5132    0.0000 H   0  0
   -3.6302    2.4865    0.0000 H   0  0
   -4.9067   -0.2745    0.0000 H   0  0
   -3.1826   -1.2456    0.0000 H   0  0
   -0.9997   -2.5132    0.0000 H   0  0
   -7.5066   -0.2967    0.0000 H   0  0
   -9.6834    0.9351    0.0000 H   0  0
  1  2  1  0
  2  3  1  0
  3  4  2  0
  4  5  1  0
  5  6  2  0
  6  7  1  0
  7  8  2  0
  3  8  1  0
  8  9  1  0
  9 10  1  0
  6 11  1  0
 11 12  2  0
 11 13  2  0
 11 14  1  0
 14 15  1  0
 15 16  2  0
 16 17  1  0
 17 18  2  0
 18 19  1  0
 19 20  1  0
 20 21  2  0
 21 22  1  0
 22 23  2  0
 22 24  1  0
 24 25  1  0
 19 26  2  0
 26 27  1  0
 27 28  2  0
 14 28  1  0
 17 28  1  0
  1 29  1  0
  1 30  1  0
  1 31  1  0
  4 32  1  0
  5 33  1  0
  7 34  1  0
 10 35  1  0
 10 36  1  0
 10 37  1  0
 15 38  1  0
 16 39  1  0
 18 40  1  0
 20 41  1  0
 21 42  1  0
 26 43  1  0
 27 44  1  0
 24 45  1  0
 25 46  1  0
M  END
> <Name>
CHEMBL2048750

> <ALogP>
2.93

> <Molecular_Weight>
402.42102

> <Num_H_Acceptors>
6

> <Num_H_Donors>
2

> <Num_RotatableBonds>
6

> <FormalCharge>
0

$$$$
CHEMBL2337864
  SciTegic01131515592D

 35 37  0  0  0  0            999 V2000
    2.5973   -1.5031    0.0000 O   0  0
    1.2990   -0.7500    0.0000 C   0  0
    1.2990    0.7500    0.0000 C   0  0
    0.0000    1.5000    0.0000 C   0  0
   -1.2990    0.7500    0.0000 C   0  0
   -1.2990   -0.7500    0.0000 N   0  0
   -2.5988   -1.5004    0.0000 C   0  0
   -3.8990   -0.7508    0.0000 C   0  0
   -5.1976   -1.5017    0.0000 C   0  0
   -6.4971   -0.7525    0.0000 C   0  0
   -6.4980    0.7475    0.0000 C   0  0
   -5.1995    1.4983    0.0000 C   0  0
   -3.9000    0.7492    0.0000 C   0  0
   -7.7982    1.4971    0.0000 C   0  0
   -9.0981    0.7483    0.0000 C   0  0
  -10.3964    1.4996    0.0000 C   0  0
  -10.3950    2.9996    0.0000 N   0  0
   -9.0952    3.7483    0.0000 C   0  0
   -7.7969    2.9971    0.0000 C   0  0
    0.0000   -1.5000    0.0000 C   0  0
    0.0000   -2.7000    0.0000 S   0  0
    2.1651    1.2500    0.0000 H   0  0
    0.0000    2.5000    0.0000 H   0  0
   -2.1651    1.2500    0.0000 H   0  0
   -2.5985   -2.5004    0.0000 H   0  0
   -1.7327   -2.0003    0.0000 H   0  0
   -5.1969   -2.5017    0.0000 H   0  0
   -7.3628   -1.2530    0.0000 H   0  0
   -5.2001    2.4983    0.0000 H   0  0
   -3.0343    1.2497    0.0000 H   0  0
   -9.0991   -0.2517    0.0000 H   0  0
  -11.2629    1.0004    0.0000 H   0  0
   -9.0943    4.7483    0.0000 H   0  0
   -6.9304    3.4963    0.0000 H   0  0
    2.5958   -2.5031    0.0000 H   0  0
  1  2  1  0
  2  3  2  0
  3  4  1  0
  4  5  2  0
  5  6  1  0
  6  7  1  0
  7  8  1  0
  8  9  2  0
  9 10  1  0
 10 11  2  0
 11 12  1  0
 12 13  2  0
  8 13  1  0
 11 14  1  0
 14 15  2  0
 15 16  1  0
 16 17  2  0
 17 18  1  0
 18 19  2  0
 14 19  1  0
  6 20  1  0
  2 20  1  0
 20 21  2  0
  3 22  1  0
  4 23  1  0
  5 24  1  0
  7 25  1  0
  7 26  1  0
  9 27  1  0
 10 28  1  0
 12 29  1  0
 13 30  1  0
 15 31  1  0
 16 32  1  0
 18 33  1  0
 19 34  1  0
  1 35  1  0
M  END
> <Name>
CHEMBL2337864

> <ALogP>
2.719

> <Molecular_Weight>
294.37086

> <Num_H_Acceptors>
3

> <Num_H_Donors>
1

> <Num_RotatableBonds>
3

> <FormalCharge>
0

$$$$
CHEMBL287899
  SciTegic01131515592D

 13 13  0  0  0  0            999 V2000
    2.5973   -1.5031    0.0000 O   0  0
    1.2990   -0.7500    0.0000 C   0  0
    1.2990    0.7500    0.0000 C   0  0
    0.0000    1.5000    0.0000 C   0  0
   -1.2990    0.7500    0.0000 C   0  0
   -1.2990   -0.7500    0.0000 N   0  0
    0.0000   -1.5000    0.0000 C   0  0
   -0.0031   -3.0008    0.0000 O   0  0
    2.1651    1.2500    0.0000 H   0  0
    0.0000    2.5000    0.0000 H   0  0
   -2.1651    1.2500    0.0000 H   0  0
    2.5958   -2.5031    0.0000 H   0  0
   -0.8698   -3.4996    0.0000 H   0  0
  1  2  1  0
  2  3  2  0
  3  4  1  0
  4  5  2  0
  5  6  1  0
  6  7  2  0
  2  7  1  0
  7  8  1  0
  3  9  1  0
  4 10  1  0
  5 11  1  0
  1 12  1  0
  8 13  1  0
M  END
> <Name>
CHEMBL287899

> <ALogP>
0.734

> <Molecular_Weight>
111.0987

> <Num_H_Acceptors>
3

> <Num_H_Donors>
2

> <Num_RotatableBonds>
0

> <FormalCharge>
0

$$$$
CHEMBL1083411
  SciTegic01131515592D

 54 55  0  0  0  0            999 V2000
    9.0755  -14.2734    0.0000 O   0  0
    9.0776  -12.7726    0.0000 N   0  0
    7.7794  -12.0195    0.0000 C   0  0
    6.7391  -12.6177    0.0000 O   0  0
    7.7815  -10.5187    0.0000 C   0  0
    6.4833   -9.7656    0.0000 C   0  0
    6.4855   -8.2648    0.0000 C   0  0
    5.1873   -7.5117    0.0000 C   0  0
    5.1894   -6.0109    0.0000 C   0  0
    3.8912   -5.2578    0.0000 N   0  0
    3.8933   -3.7570    0.0000 C   0  0
    4.9336   -3.1588    0.0000 O   0  0
    2.5951   -3.0039    0.0000 N   0  0
    2.5973   -1.5031    0.0000 C   0  0
    3.6375   -0.9049    0.0000 O   0  0
    1.2990   -0.7500    0.0000 C   0  0
    1.2990    0.7500    0.0000 C   0  0
    0.0000    1.5000    0.0000 C   0  0
   -1.2990    0.7500    0.0000 C   0  0
   -2.5987    1.5004    0.0000 N   0  0
   -2.7390    2.9810    0.0000 C   0  0
   -4.2067    3.2905    0.0000 C   0  0
   -4.9546    1.9903    0.0000 C   0  0
   -3.9492    0.8772    0.0000 C   0  0
   -1.2990   -0.7500    0.0000 C   0  0
    0.0000   -1.5000    0.0000 C   0  0
   -2.5972   -1.5031    0.0000 N   0  3
   -2.5955   -2.7031    0.0000 O   0  0
   -3.6375   -0.9049    0.0000 O   0  5
    8.6468  -11.0201    0.0000 H   0  0
    8.6484  -10.0202    0.0000 H   0  0
    5.6181   -9.2643    0.0000 H   0  0
    5.6164  -10.2641    0.0000 H   0  0
    6.4874   -7.2648    0.0000 H   0  0
    7.3524   -7.7663    0.0000 H   0  0
    4.3220   -7.0104    0.0000 H   0  0
    4.3204   -8.0102    0.0000 H   0  0
    5.1913   -5.0109    0.0000 H   0  0
    6.0563   -5.5124    0.0000 H   0  0
    2.1651    1.2500    0.0000 H   0  0
    0.0000    2.5000    0.0000 H   0  0
   -2.9568    3.9570    0.0000 H   0  0
   -1.7939    2.6543    0.0000 H   0  0
   -3.6081    4.0916    0.0000 H   0  0
   -5.2028    3.3787    0.0000 H   0  0
   -5.5315    2.8071    0.0000 H   0  0
   -5.3463    1.0702    0.0000 H   0  0
   -4.9024    0.5748    0.0000 H   0  0
   -3.1915    0.2245    0.0000 H   0  0
    0.0000   -2.5000    0.0000 H   0  0
    9.9405  -14.7752    0.0000 H   0  0
    9.9445  -12.2741    0.0000 H   0  0
    3.0243   -5.7563    0.0000 H   0  0
    1.7282   -3.5024    0.0000 H   0  0
  1  2  1  0
  2  3  1  0
  3  4  2  0
  3  5  1  0
  5  6  1  0
  6  7  1  0
  7  8  1  0
  8  9  1  0
  9 10  1  0
 10 11  1  0
 11 12  2  0
 11 13  1  0
 13 14  1  0
 14 15  2  0
 14 16  1  0
 16 17  2  0
 17 18  1  0
 18 19  2  0
 19 20  1  0
 20 21  1  0
 21 22  1  0
 22 23  1  0
 23 24  1  0
 20 24  1  0
 19 25  1  0
 25 26  2  0
 16 26  1  0
 25 27  1  0
 27 28  2  0
 27 29  1  0
  5 30  1  0
  5 31  1  0
  6 32  1  0
  6 33  1  0
  7 34  1  0
  7 35  1  0
  8 36  1  0
  8 37  1  0
  9 38  1  0
  9 39  1  0
 17 40  1  0
 18 41  1  0
 21 42  1  0
 21 43  1  0
 22 44  1  0
 22 45  1  0
 23 46  1  0
 23 47  1  0
 24 48  1  0
 24 49  1  0
 26 50  1  0
  1 51  1  0
  2 52  1  0
 10 53  1  0
 13 54  1  0
M  CHG  2  27   1  29  -1
M  END
> <Name>
CHEMBL1083411

> <ALogP>
1.684

> <Molecular_Weight>
407.421

> <Num_H_Acceptors>
7

> <Num_H_Donors>
4

> <Num_RotatableBonds>
9

> <FormalCharge>
0

$$$$
CHEMBL247383
  SciTegic01131515592D

 37 39  0  0  0  0            999 V2000
    6.3513   -1.2462    0.0000 O   0  0
    4.8506   -1.2602    0.0000 N   0  0
    4.0872    0.0320    0.0000 C   0  0
    4.6772    1.0770    0.0000 O   0  0
    2.5889    0.0182    0.0000 C   0  0
    1.7138    1.2033    0.0000 C   0  0
    0.2917    0.7475    0.0000 C   0  0
   -1.0028    1.5132    0.0000 C   0  0
   -2.3155    0.7475    0.0000 C   0  0
   -2.3155   -0.7475    0.0000 C   0  0
   -3.6187   -1.4919    0.0000 N   0  0
   -3.6267   -2.9927    0.0000 C   0  0
   -2.5905   -3.5979    0.0000 O   0  0
   -4.9300   -3.7369    0.0000 C   0  0
   -4.9380   -5.2378    0.0000 C   0  0
   -3.6430   -5.9947    0.0000 C   0  0
   -3.6511   -7.4947    0.0000 C   0  0
   -4.9541   -8.2377    0.0000 C   0  0
   -4.9606   -9.4377    0.0000 F   0  0
   -6.2491   -7.4808    0.0000 C   0  0
   -6.2411   -5.9808    0.0000 C   0  0
   -1.0028   -1.5132    0.0000 C   0  0
    0.2917   -0.7475    0.0000 C   0  0
    1.7138   -1.2033    0.0000 S   0  0
    2.0210    2.1549    0.0000 H   0  0
   -0.9997    2.5132    0.0000 H   0  0
   -3.1826    1.2456    0.0000 H   0  0
   -4.9251   -2.7370    0.0000 H   0  0
   -5.7935   -3.2326    0.0000 H   0  0
   -2.7744   -5.4994    0.0000 H   0  0
   -2.7878   -7.9993    0.0000 H   0  0
   -7.1178   -7.9761    0.0000 H   0  0
   -7.1044   -5.4761    0.0000 H   0  0
   -0.9997   -2.5132    0.0000 H   0  0
    6.8599   -2.1072    0.0000 H   0  0
    4.3589   -2.1310    0.0000 H   0  0
   -4.4822   -0.9875    0.0000 H   0  0
  1  2  1  0
  2  3  1  0
  3  4  2  0
  3  5  1  0
  5  6  2  0
  6  7  1  0
  7  8  2  0
  8  9  1  0
  9 10  2  0
 10 11  1  0
 11 12  1  0
 12 13  2  0
 12 14  1  0
 14 15  1  0
 15 16  2  0
 16 17  1  0
 17 18  2  0
 18 19  1  0
 18 20  1  0
 20 21  2  0
 15 21  1  0
 10 22  1  0
 22 23  2  0
  7 23  1  0
 23 24  1  0
  5 24  1  0
  6 25  1  0
  8 26  1  0
  9 27  1  0
 14 28  1  0
 14 29  1  0
 16 30  1  0
 17 31  1  0
 20 32  1  0
 21 33  1  0
 22 34  1  0
  1 35  1  0
  2 36  1  0
 11 37  1  0
M  END
> <Name>
CHEMBL247383

> <ALogP>
3.023

> <Molecular_Weight>
344.36012

> <Num_H_Acceptors>
3

> <Num_H_Donors>
3

> <Num_RotatableBonds>
4

> <FormalCharge>
0

$$$$
CHEMBL1084356
  SciTegic01131515592D

 66 67  0  0  0  0            999 V2000
    3.5916   -6.9044    0.0000 C   0  0
    3.1221   -5.4789    0.0000 N   0  3
    1.6533   -5.1702    0.0000 C   0  0
    4.1211   -4.3589    0.0000 C   0  0
    3.6516   -2.9334    0.0000 C   0  0
    5.1498   -3.2438    0.0000 C   0  0
    4.6517   -1.8144    0.0000 C   0  0
    2.1825   -2.6263    0.0000 C   0  0
    1.7138   -1.2033    0.0000 N   0  0
    2.5889    0.0182    0.0000 C   0  0
    1.7138    1.2033    0.0000 N   0  0
    0.2917    0.7475    0.0000 C   0  0
   -1.0028    1.5132    0.0000 C   0  0
   -2.3155    0.7475    0.0000 C   0  0
   -2.3155   -0.7475    0.0000 C   0  0
   -1.0028   -1.5132    0.0000 C   0  0
    0.2917   -0.7475    0.0000 C   0  0
   -3.6217    1.4865    0.0000 C   0  0
   -3.6319    2.6865    0.0000 O   0  0
   -4.9153    0.7255    0.0000 N   0  0
   -6.2216    1.4644    0.0000 C   0  0
   -6.2318    2.6643    0.0000 O   0  0
   -7.5151    0.7033    0.0000 N   0  0
   -8.8215    1.4422    0.0000 C   0  0
  -10.1150    0.6811    0.0000 C   0  0
  -11.4214    1.4200    0.0000 C   0  0
  -12.7149    0.6590    0.0000 C   0  0
  -14.0213    1.3978    0.0000 C   0  0
  -15.3148    0.6368    0.0000 C   0  0
  -15.3046   -0.5632    0.0000 O   0  0
  -16.6211    1.3757    0.0000 N   0  0
  -17.9147    0.6146    0.0000 O   0  0
    2.9259   -7.6506    0.0000 H   0  0
    3.9049   -7.8540    0.0000 H   0  0
    4.5706   -7.1080    0.0000 H   0  0
    1.3416   -4.2200    0.0000 H   0  0
    0.6746   -4.9650    0.0000 H   0  0
    0.9861   -5.9151    0.0000 H   0  0
    4.4344   -5.3086    0.0000 H   0  0
    5.1002   -4.5626    0.0000 H   0  0
    5.8155   -2.4977    0.0000 H   0  0
    5.4634   -4.1934    0.0000 H   0  0
    6.1289   -3.4472    0.0000 H   0  0
    4.3398   -0.8643    0.0000 H   0  0
    5.6305   -2.0190    0.0000 H   0  0
    5.3184   -1.0691    0.0000 H   0  0
    1.5162   -3.3719    0.0000 H   0  0
    1.2036   -2.4222    0.0000 H   0  0
    3.5889    0.0254    0.0000 H   0  0
   -0.9997    2.5132    0.0000 H   0  0
   -3.1826   -1.2456    0.0000 H   0  0
   -0.9997   -2.5132    0.0000 H   0  0
   -7.9598    1.9497    0.0000 H   0  0
   -8.8300    2.4421    0.0000 H   0  0
   -9.2449    0.1884    0.0000 H   0  0
  -10.1065   -0.3188    0.0000 H   0  0
  -10.5597    1.9275    0.0000 H   0  0
  -11.4299    2.4200    0.0000 H   0  0
  -11.8447    0.1662    0.0000 H   0  0
  -12.7064   -0.3410    0.0000 H   0  0
  -14.8914    1.8906    0.0000 H   0  0
  -14.0298    2.3978    0.0000 H   0  0
   -4.9067   -0.2745    0.0000 H   0  0
   -7.5066   -0.2967    0.0000 H   0  0
  -16.6297    2.3756    0.0000 H   0  0
  -18.7851    1.1069    0.0000 H   0  0
  1  2  1  0
  2  3  1  0
  2  4  1  0
  4  5  1  0
  5  6  1  0
  5  7  1  0
  5  8  1  0
  8  9  1  0
  9 10  1  0
 10 11  2  0
 11 12  1  0
 12 13  2  0
 13 14  1  0
 14 15  2  0
 15 16  1  0
 16 17  2  0
  9 17  1  0
 12 17  1  0
 14 18  1  0
 18 19  2  0
 18 20  1  0
 20 21  1  0
 21 22  2  0
 21 23  1  0
 23 24  1  0
 24 25  1  0
 25 26  1  0
 26 27  1  0
 27 28  1  0
 28 29  1  0
 29 30  2  0
 29 31  1  0
 31 32  1  0
  1 33  1  0
  1 34  1  0
  1 35  1  0
  3 36  1  0
  3 37  1  0
  3 38  1  0
  4 39  1  0
  4 40  1  0
  6 41  1  0
  6 42  1  0
  6 43  1  0
  7 44  1  0
  7 45  1  0
  7 46  1  0
  8 47  1  0
  8 48  1  0
 10 49  1  0
 13 50  1  0
 15 51  1  0
 16 52  1  0
 24 53  1  0
 24 54  1  0
 25 55  1  0
 25 56  1  0
 26 57  1  0
 26 58  1  0
 27 59  1  0
 27 60  1  0
 28 61  1  0
 28 62  1  0
 20 63  1  0
 23 64  1  0
 31 65  1  0
 32 66  1  0
M  CHG  1   2   1
M  END
> <Name>
CHEMBL1084356

> <ALogP>
0.38

> <Molecular_Weight>
447.5511

> <Num_H_Acceptors>
5

> <Num_H_Donors>
5

> <Num_RotatableBonds>
11

> <FormalCharge>
1

$$$$
CHEMBL2337863
  SciTegic01131515592D

 32 34  0  0  0  0            999 V2000
    2.5973   -1.5031    0.0000 O   0  0
    1.2990   -0.7500    0.0000 C   0  0
    1.2990    0.7500    0.0000 C   0  0
    0.0000    1.5000    0.0000 C   0  0
   -1.2990    0.7500    0.0000 C   0  0
   -1.2990   -0.7500    0.0000 N   0  0
   -2.5988   -1.5004    0.0000 C   0  0
   -3.8990   -0.7508    0.0000 C   0  0
   -5.2499   -1.3728    0.0000 C   0  0
   -6.2543   -0.2587    0.0000 N   0  0
   -5.5052    1.0408    0.0000 N   0  0
   -4.0377    0.7299    0.0000 N   0  0
   -7.7468   -0.4165    0.0000 C   0  0
   -8.4543   -1.7335    0.0000 C   0  0
   -9.9536   -1.7786    0.0000 C   0  0
  -10.7423   -0.5027    0.0000 C   0  0
  -10.0316    0.8183    0.0000 C   0  0
   -8.5323    0.8634    0.0000 C   0  0
    0.0000   -1.5000    0.0000 C   0  0
    0.0000   -2.7000    0.0000 S   0  0
    2.1651    1.2500    0.0000 H   0  0
    0.0000    2.5000    0.0000 H   0  0
   -2.1651    1.2500    0.0000 H   0  0
   -2.5985   -2.5004    0.0000 H   0  0
   -1.7327   -2.0003    0.0000 H   0  0
   -5.4514   -2.3523    0.0000 H   0  0
   -7.9282   -2.5840    0.0000 H   0  0
  -10.4274   -2.6592    0.0000 H   0  0
  -11.7418   -0.5327    0.0000 H   0  0
  -10.5574    1.6689    0.0000 H   0  0
   -8.0572    1.7433    0.0000 H   0  0
    2.5958   -2.5031    0.0000 H   0  0
  1  2  1  0
  2  3  2  0
  3  4  1  0
  4  5  2  0
  5  6  1  0
  6  7  1  0
  7  8  1  0
  8  9  2  0
  9 10  1  0
 10 11  1  0
 11 12  2  0
  8 12  1  0
 10 13  1  0
 13 14  2  0
 14 15  1  0
 15 16  2  0
 16 17  1  0
 17 18  2  0
 13 18  1  0
  6 19  1  0
  2 19  1  0
 19 20  2  0
  3 21  1  0
  4 22  1  0
  5 23  1  0
  7 24  1  0
  7 25  1  0
  9 26  1  0
 14 27  1  0
 15 28  1  0
 16 29  1  0
 17 30  1  0
 18 31  1  0
  1 32  1  0
M  END
> <Name>
CHEMBL2337863

> <ALogP>
2.325

> <Molecular_Weight>
284.33628

> <Num_H_Acceptors>
4

> <Num_H_Donors>
1

> <Num_RotatableBonds>
3

> <FormalCharge>
0

$$$$
CHEMBL2337874
  SciTegic01131515592D

 13 13  0  0  0  0            999 V2000
    2.5973   -1.5031    0.0000 O   0  0
    1.2990   -0.7500    0.0000 C   0  0
    1.2990    0.7500    0.0000 C   0  0
    0.0000    1.5000    0.0000 C   0  0
   -1.2990    0.7500    0.0000 C   0  0
   -1.2990   -0.7500    0.0000 N   0  0
    0.0000   -1.5000    0.0000 C   0  0
    0.0000   -2.7000    0.0000 S   0  0
    2.1651    1.2500    0.0000 H   0  0
    0.0000    2.5000    0.0000 H   0  0
   -2.1651    1.2500    0.0000 H   0  0
    2.5958   -2.5031    0.0000 H   0  0
   -2.1651   -1.2500    0.0000 H   0  0
  1  2  1  0
  2  3  2  0
  3  4  1  0
  4  5  2  0
  5  6  1  0
  6  7  1  0
  2  7  1  0
  7  8  2  0
  3  9  1  0
  4 10  1  0
  5 11  1  0
  1 12  1  0
  6 13  1  0
M  END
> <Name>
CHEMBL2337874

> <ALogP>
0.232

> <Molecular_Weight>
127.1643

> <Num_H_Acceptors>
2

> <Num_H_Donors>
2

> <Num_RotatableBonds>
0

> <FormalCharge>
0

$$$$
CHEMBL400919
  SciTegic01131515592D

 71 76  0  0  0  0            999 V2000
  -11.7125   -1.4733    0.0000 N   0  0
  -13.0124   -0.7230    0.0000 C   0  0
  -14.3129   -1.4706    0.0000 C   0  0
  -15.6105   -0.7181    0.0000 C   0  0
  -15.6076    0.7819    0.0000 C   0  0
  -14.3072    1.5294    0.0000 C   0  0
  -13.0095    0.7770    0.0000 C   0  0
  -11.7068    1.5223    0.0000 N   0  0
  -10.4095    0.7676    0.0000 C   0  0
  -10.4139   -0.4324    0.0000 O   0  0
   -9.1068    1.5129    0.0000 C   0  0
   -7.8092    0.7605    0.0000 C   0  0
   -6.5087    1.5081    0.0000 C   0  0
   -6.5059    3.0081    0.0000 C   0  0
   -7.8036    3.7605    0.0000 C   0  0
   -9.1040    3.0129    0.0000 C   0  0
   -5.2049    3.7560    0.0000 C   0  0
   -5.2025    5.2568    0.0000 C   0  0
   -4.1622    5.8549    0.0000 O   0  0
   -6.5006    6.0101    0.0000 N   0  0
   -6.4984    7.5108    0.0000 C   0  0
   -7.7923    8.2643    0.0000 C   0  0
   -7.7776    9.7771    0.0000 C   0  0
   -6.4782   10.5207    0.0000 C   0  0
   -6.4728   12.0177    0.0000 O   0  0
   -5.1734   12.7613    0.0000 C   0  0
   -3.8795   12.0078    0.0000 C   0  0
   -3.8850   10.5107    0.0000 O   0  0
   -5.1844    9.7672    0.0000 C   0  0
   -5.1898    8.2701    0.0000 C   0  0
   -3.9067    3.0027    0.0000 C   0  0
   -2.8664    3.6008    0.0000 O   0  0
   -3.9091    1.5019    0.0000 N   0  0
   -2.6110    0.7487    0.0000 C   0  0
   -2.6109   -0.7489    0.0000 C   0  0
   -1.2955   -1.4963    0.0000 C   0  0
    0.0003   -0.7464    0.0000 C   0  0
    1.2974   -1.4939    0.0000 O   0  0
    2.5931   -0.7440    0.0000 C   0  0
    2.5917    0.7533    0.0000 C   0  0
    1.2946    1.5007    0.0000 O   0  0
   -0.0011    0.7508    0.0000 C   0  0
   -1.2983    1.4983    0.0000 C   0  0
  -14.3148   -2.4706    0.0000 H   0  0
  -16.4775   -1.2165    0.0000 H   0  0
  -16.4727    1.2835    0.0000 H   0  0
  -14.3053    2.5294    0.0000 H   0  0
   -7.8111   -0.2395    0.0000 H   0  0
   -5.6437    1.0064    0.0000 H   0  0
   -7.8017    4.7605    0.0000 H   0  0
   -9.9691    3.5145    0.0000 H   0  0
   -4.3379    4.2544    0.0000 H   0  0
   -8.6616    7.7701    0.0000 H   0  0
   -8.6402   10.2829    0.0000 H   0  0
   -4.2940   13.2374    0.0000 H   0  0
   -6.0491   13.2441    0.0000 H   0  0
   -4.7354   11.4906    0.0000 H   0  0
   -3.0274   11.4844    0.0000 H   0  0
   -4.3242    7.7695    0.0000 H   0  0
   -3.4751   -1.2519    0.0000 H   0  0
   -1.2915   -2.4963    0.0000 H   0  0
    3.4466   -0.2229    0.0000 H   0  0
    2.5706   -1.7438    0.0000 H   0  0
    3.4462    0.2337    0.0000 H   0  0
    2.5673    1.7530    0.0000 H   0  0
   -1.2963    2.4983    0.0000 H   0  0
  -10.8463   -0.9737    0.0000 H   0  0
  -11.7127   -2.4733    0.0000 H   0  0
  -11.7032    2.5223    0.0000 H   0  0
   -7.3676    5.5117    0.0000 H   0  0
   -4.7760    1.0035    0.0000 H   0  0
  1  2  1  0
  2  3  2  0
  3  4  1  0
  4  5  2  0
  5  6  1  0
  6  7  2  0
  2  7  1  0
  7  8  1  0
  8  9  1  0
  9 10  2  0
  9 11  1  0
 11 12  2  0
 12 13  1  0
 13 14  2  0
 14 15  1  0
 15 16  2  0
 11 16  1  0
 14 17  1  0
 17 18  1  0
 18 19  2  0
 18 20  1  0
 20 21  1  0
 21 22  2  0
 22 23  1  0
 23 24  2  0
 24 25  1  0
 25 26  1  0
 26 27  1  0
 27 28  1  0
 28 29  1  0
 24 29  1  0
 29 30  2  0
 21 30  1  0
 17 31  1  0
 31 32  2  0
 31 33  1  0
 33 34  1  0
 34 35  2  0
 35 36  1  0
 36 37  2  0
 37 38  1  0
 38 39  1  0
 39 40  1  0
 40 41  1  0
 41 42  1  0
 37 42  1  0
 42 43  2  0
 34 43  1  0
  3 44  1  0
  4 45  1  0
  5 46  1  0
  6 47  1  0
 12 48  1  0
 13 49  1  0
 15 50  1  0
 16 51  1  0
 17 52  1  0
 22 53  1  0
 23 54  1  0
 26 55  1  0
 26 56  1  0
 27 57  1  0
 27 58  1  0
 30 59  1  0
 35 60  1  0
 36 61  1  0
 39 62  1  0
 39 63  1  0
 40 64  1  0
 40 65  1  0
 43 66  1  0
  1 67  1  0
  1 68  1  0
  8 69  1  0
 20 70  1  0
 33 71  1  0
M  END
> <Name>
CHEMBL400919

> <ALogP>
3.02

> <Molecular_Weight>
580.58731

> <Num_H_Acceptors>
8

> <Num_H_Donors>
4

> <Num_RotatableBonds>
7

> <FormalCharge>
0

$$$$
CHEMBL387042
  SciTegic01131515592D

 58 59  0  0  0  0            999 V2000
    2.5988   -1.5004    0.0000 C   0  0
    1.2990   -0.7500    0.0000 C   0  0
    1.2990    0.7500    0.0000 N   0  0
    0.0000    1.5000    0.0000 C   0  0
   -1.2990    0.7500    0.0000 C   0  0
   -2.5988    1.5004    0.0000 C   0  0
   -2.5998    3.0012    0.0000 O   0  0
   -1.2990   -0.7500    0.0000 C   0  0
   -2.5988   -1.5004    0.0000 C   0  0
   -3.8990   -0.7508    0.0000 N   0  0
   -5.1988   -1.5013    0.0000 C   0  0
   -6.4994   -0.7540    0.0000 C   0  0
   -7.7969   -1.5066    0.0000 C   0  0
   -7.7938   -3.0066    0.0000 C   0  0
   -9.0905   -3.7623    0.0000 O   0  0
   -9.0853   -5.2632    0.0000 C   0  0
  -10.3820   -6.0189    0.0000 C   0  0
  -10.3768   -7.5197    0.0000 C   0  0
  -11.6735   -8.2754    0.0000 C   0  0
  -11.6683   -9.7763    0.0000 C   0  0
  -12.9649  -10.5320    0.0000 C   0  0
  -12.9597  -12.0328    0.0000 C   0  0
  -11.9182  -12.6289    0.0000 O   0  0
  -14.2564  -12.7885    0.0000 N   0  0
  -14.2512  -14.2894    0.0000 O   0  0
   -6.4933   -3.7540    0.0000 C   0  0
   -5.1958   -3.0013    0.0000 C   0  0
    0.0000   -1.5000    0.0000 C   0  0
    0.0031   -3.0008    0.0000 O   0  0
    3.4651   -1.0010    0.0000 H   0  0
    2.5985   -2.5004    0.0000 H   0  0
    3.4646   -2.0008    0.0000 H   0  0
    0.0000    2.5000    0.0000 H   0  0
   -3.4647    1.0001    0.0000 H   0  0
   -3.4651    2.0000    0.0000 H   0  0
   -2.5985   -2.5004    0.0000 H   0  0
   -3.4646   -2.0008    0.0000 H   0  0
   -6.5015    0.2460    0.0000 H   0  0
   -8.6640   -1.0084    0.0000 H   0  0
   -8.2211   -4.7600    0.0000 H   0  0
   -8.2174   -5.7599    0.0000 H   0  0
  -10.3859   -5.0189    0.0000 H   0  0
  -11.2499   -5.5222    0.0000 H   0  0
   -9.5126   -7.0166    0.0000 H   0  0
   -9.5089   -8.0164    0.0000 H   0  0
  -11.6774   -7.2754    0.0000 H   0  0
  -12.5414   -7.7787    0.0000 H   0  0
  -10.8041   -9.2731    0.0000 H   0  0
  -10.8004  -10.2730    0.0000 H   0  0
  -13.8291  -11.0351    0.0000 H   0  0
  -13.8328  -10.0353    0.0000 H   0  0
   -6.4912   -4.7540    0.0000 H   0  0
   -4.3287   -3.4996    0.0000 H   0  0
   -3.4658    3.5012    0.0000 H   0  0
   -3.8993    0.2492    0.0000 H   0  0
  -15.1243  -12.2918    0.0000 H   0  0
  -15.1152  -14.7929    0.0000 H   0  0
    0.8698   -3.4996    0.0000 H   0  0
  1  2  1  0
  2  3  2  0
  3  4  1  0
  4  5  2  0
  5  6  1  0
  6  7  1  0
  5  8  1  0
  8  9  1  0
  9 10  1  0
 10 11  1  0
 11 12  2  0
 12 13  1  0
 13 14  2  0
 14 15  1  0
 15 16  1  0
 16 17  1  0
 17 18  1  0
 18 19  1  0
 19 20  1  0
 20 21  1  0
 21 22  1  0
 22 23  2  0
 22 24  1  0
 24 25  1  0
 14 26  1  0
 26 27  2  0
 11 27  1  0
  8 28  2  0
  2 28  1  0
 28 29  1  0
  1 30  1  0
  1 31  1  0
  1 32  1  0
  4 33  1  0
  6 34  1  0
  6 35  1  0
  9 36  1  0
  9 37  1  0
 12 38  1  0
 13 39  1  0
 16 40  1  0
 16 41  1  0
 17 42  1  0
 17 43  1  0
 18 44  1  0
 18 45  1  0
 19 46  1  0
 19 47  1  0
 20 48  1  0
 20 49  1  0
 21 50  1  0
 21 51  1  0
 26 52  1  0
 27 53  1  0
  7 54  1  0
 10 55  1  0
 24 56  1  0
 25 57  1  0
 29 58  1  0
M  END
> <Name>
CHEMBL387042

> <ALogP>
2.295

> <Molecular_Weight>
403.47206

> <Num_H_Acceptors>
7

> <Num_H_Donors>
5

> <Num_RotatableBonds>
12

> <FormalCharge>
0

$$$$
CHEMBL217778
  SciTegic01131515592D

 55 56  0  0  0  0            999 V2000
    2.5951   -3.0039    0.0000 C   0  0
    2.5973   -1.5031    0.0000 O   0  0
    1.2990   -0.7500    0.0000 C   0  0
    1.2990    0.7500    0.0000 C   0  0
    0.0000    1.5000    0.0000 C   0  0
   -1.2990    0.7500    0.0000 C   0  0
   -1.2990   -0.7500    0.0000 C   0  0
    0.0000   -1.5000    0.0000 C   0  0
   -2.5988    1.5004    0.0000 S   0  0
   -3.6378    0.9001    0.0000 O   0  0
   -3.6383    2.0999    0.0000 O   0  0
   -2.5998    3.0012    0.0000 N   0  0
   -3.8995    3.7516    0.0000 C   0  0
   -3.9027    5.2517    0.0000 C   0  0
   -5.2032    5.9990    0.0000 C   0  0
   -6.5007    5.2464    0.0000 C   0  0
   -7.8036    5.9914    0.0000 O   0  0
   -9.1007    5.2365    0.0000 C   0  0
  -10.4035    5.9816    0.0000 C   0  0
  -11.7007    5.2267    0.0000 C   0  0
  -13.0035    5.9718    0.0000 C   0  0
  -14.3006    5.2169    0.0000 C   0  0
  -15.6034    5.9620    0.0000 C   0  0
  -16.9006    5.2070    0.0000 C   0  0
  -16.8961    4.0071    0.0000 O   0  0
  -18.2034    5.9521    0.0000 N   0  0
  -19.5005    5.1972    0.0000 O   0  0
   -6.4977    3.7464    0.0000 C   0  0
   -5.1971    2.9990    0.0000 C   0  0
    3.4601   -3.5057    0.0000 H   0  0
    1.7282   -3.5024    0.0000 H   0  0
    2.5932   -4.0039    0.0000 H   0  0
    2.1651    1.2500    0.0000 H   0  0
    0.0000    2.5000    0.0000 H   0  0
   -2.1651   -1.2500    0.0000 H   0  0
    0.0000   -2.5000    0.0000 H   0  0
   -3.0377    5.7535    0.0000 H   0  0
   -5.2053    6.9990    0.0000 H   0  0
   -8.2329    4.7397    0.0000 H   0  0
   -9.0969    4.2365    0.0000 H   0  0
   -9.5395    6.4850    0.0000 H   0  0
  -10.4073    6.9816    0.0000 H   0  0
  -10.8328    4.7298    0.0000 H   0  0
  -11.6969    4.2267    0.0000 H   0  0
  -12.1394    6.4752    0.0000 H   0  0
  -13.0073    6.9718    0.0000 H   0  0
  -13.4328    4.7200    0.0000 H   0  0
  -14.2968    4.2169    0.0000 H   0  0
  -16.4713    6.4588    0.0000 H   0  0
  -15.6072    6.9619    0.0000 H   0  0
   -7.3627    3.2446    0.0000 H   0  0
   -5.1951    1.9990    0.0000 H   0  0
   -1.7339    3.5015    0.0000 H   0  0
  -18.2072    6.9521    0.0000 H   0  0
  -20.3686    5.6937    0.0000 H   0  0
  1  2  1  0
  2  3  1  0
  3  4  2  0
  4  5  1  0
  5  6  2  0
  6  7  1  0
  7  8  2  0
  3  8  1  0
  6  9  1  0
  9 10  2  0
  9 11  2  0
  9 12  1  0
 12 13  1  0
 13 14  2  0
 14 15  1  0
 15 16  2  0
 16 17  1  0
 17 18  1  0
 18 19  1  0
 19 20  1  0
 20 21  1  0
 21 22  1  0
 22 23  1  0
 23 24  1  0
 24 25  2  0
 24 26  1  0
 26 27  1  0
 16 28  1  0
 28 29  2  0
 13 29  1  0
  1 30  1  0
  1 31  1  0
  1 32  1  0
  4 33  1  0
  5 34  1  0
  7 35  1  0
  8 36  1  0
 14 37  1  0
 15 38  1  0
 18 39  1  0
 18 40  1  0
 19 41  1  0
 19 42  1  0
 20 43  1  0
 20 44  1  0
 21 45  1  0
 21 46  1  0
 22 47  1  0
 22 48  1  0
 23 49  1  0
 23 50  1  0
 28 51  1  0
 29 52  1  0
 12 53  1  0
 26 54  1  0
 27 55  1  0
M  END
> <Name>
CHEMBL217778

> <ALogP>
3.089

> <Molecular_Weight>
422.49524

> <Num_H_Acceptors>
6

> <Num_H_Donors>
3

> <Num_RotatableBonds>
12

> <FormalCharge>
0

$$$$
CHEMBL511573
  SciTegic01131515592D

 55 58  0  0  1  0            999 V2000
  -15.3723    3.8959    0.0000 O   0  5
  -14.8867    4.9933    0.0000 C   0  0
  -15.5945    5.9623    0.0000 O   0  0
  -13.3944    5.1530    0.0000 C   0  0
  -12.5091    3.9411    0.0000 C   0  0
  -11.0168    4.1009    0.0000 C   0  0
  -10.1315    2.8890    0.0000 C   0  0
   -8.6392    3.0487    0.0000 C   0  0
   -7.7540    1.8368    0.0000 C   0  0  2  0  0  0
   -8.3641    0.4655    0.0000 N   0  0
   -9.8565    0.3074    0.0000 C   0  0
  -10.5624    1.2778    0.0000 O   0  0
  -10.4667   -1.0639    0.0000 C   0  0
  -11.9243   -1.3591    0.0000 C   0  0
  -12.0777   -2.8512    0.0000 N   0  0
  -10.7060   -3.4582    0.0000 C   0  0
   -9.7049   -2.3412    0.0000 S   0  0
   -6.2640    1.9946    0.0000 C   0  0
   -5.5150    3.2942    0.0000 N   0  0
   -4.0476    2.9835    0.0000 C   0  0
   -3.9086    1.5029    0.0000 C   0  0
   -5.2594    0.8807    0.0000 N   0  0
   -2.6111    0.7486    0.0000 C   0  0
   -2.6111   -0.7486    0.0000 C   0  0
   -1.2964   -1.4973    0.0000 C   0  0
    0.0000   -0.7486    0.0000 C   0  0
    1.2964   -1.4973    0.0000 C   0  0
    2.5929   -0.7486    0.0000 C   0  0
    2.5929    0.7486    0.0000 C   0  0
    1.2964    1.4973    0.0000 C   0  0
    0.0000    0.7486    0.0000 C   0  0
   -1.2964    1.4973    0.0000 C   0  0
  -13.9838    5.9608    0.0000 H   0  0
  -12.9897    6.0675    0.0000 H   0  0
  -13.5034    3.8342    0.0000 H   0  0
  -12.9138    3.0267    0.0000 H   0  0
  -11.6063    4.9087    0.0000 H   0  0
  -10.6121    5.0153    0.0000 H   0  0
  -11.1258    2.7820    0.0000 H   0  0
  -10.5362    1.9745    0.0000 H   0  0
   -9.2287    3.8565    0.0000 H   0  0
   -8.2345    3.9632    0.0000 H   0  0
   -7.1657    1.0281    0.0000 H   0  0
  -12.6650   -0.6872    0.0000 H   0  0
  -10.4959   -4.4359    0.0000 H   0  0
   -3.3010    3.6488    0.0000 H   0  0
   -3.4756   -1.2512    0.0000 H   0  0
   -1.2934   -2.4973    0.0000 H   0  0
    1.2964   -2.4973    0.0000 H   0  0
    3.4589   -1.2486    0.0000 H   0  0
    3.4589    1.2486    0.0000 H   0  0
    1.2964    2.4973    0.0000 H   0  0
   -1.2934    2.4973    0.0000 H   0  0
   -7.7758   -0.3432    0.0000 H   0  0
   -5.9225    4.2074    0.0000 H   0  0
  1  2  1  0
  2  3  2  0
  2  4  1  0
  4  5  1  0
  5  6  1  0
  6  7  1  0
  7  8  1  0
  8  9  1  0
  9 10  1  0
 10 11  1  0
 11 12  2  0
 11 13  1  0
 13 14  2  0
 14 15  1  0
 15 16  2  0
 16 17  1  0
 13 17  1  0
  9 18  1  0
 18 19  1  0
 19 20  1  0
 20 21  2  0
 21 22  1  0
 18 22  2  0
 21 23  1  0
 23 24  2  0
 24 25  1  0
 25 26  2  0
 26 27  1  0
 27 28  2  0
 28 29  1  0
 29 30  2  0
 30 31  1  0
 26 31  1  0
 31 32  2  0
 23 32  1  0
  4 33  1  0
  4 34  1  0
  5 35  1  0
  5 36  1  0
  6 37  1  0
  6 38  1  0
  7 39  1  0
  7 40  1  0
  8 41  1  0
  8 42  1  0
  9 43  1  6
 14 44  1  0
 16 45  1  0
 20 46  1  0
 24 47  1  0
 25 48  1  0
 27 49  1  0
 28 50  1  0
 29 51  1  0
 30 52  1  0
 32 53  1  0
 10 54  1  0
 19 55  1  0
M  CHG  1   1  -1
M  STY  1   1 DAT
M  SAL   1  1  22
M  SDT   1 MRV_IMPLICIT_H
M  SDD   1     0.0000    0.0000    DR    ALL  0       0
M  SED   1 IMPL_H1
M  END
> <Name>
CHEMBL511573

> <ALogP>
2.385

> <Molecular_Weight>
447.52942

> <Num_H_Acceptors>
5

> <Num_H_Donors>
2

> <Num_RotatableBonds>
10

> <FormalCharge>
-1

$$$$
CHEMBL471868
  SciTegic01131515592D

 52 55  0  0  0  0            999 V2000
    3.9021   -3.7502    0.0000 C   0  0
    2.6015   -3.0012    0.0000 O   0  0
    2.5988   -1.5004    0.0000 P   0  0
    1.5601   -2.1013    0.0000 O   0  0
    1.2990   -0.7500    0.0000 C   0  0
    1.2990    0.7500    0.0000 C   0  0
    0.0000    1.5000    0.0000 C   0  0
   -1.2990    0.7500    0.0000 C   0  0
   -1.2990   -0.7500    0.0000 C   0  0
    0.0000   -1.5000    0.0000 C   0  0
    3.8990   -0.7507    0.0000 C   0  0
    5.1977   -1.5013    0.0000 C   0  0
    6.4971   -0.7520    0.0000 C   0  0
    6.4979    0.7480    0.0000 C   0  0
    5.1992    1.4987    0.0000 C   0  0
    3.8998    0.7493    0.0000 C   0  0
    7.7965    1.5004    0.0000 C   0  0
    8.8365    0.9017    0.0000 O   0  0
    7.7951    3.0012    0.0000 N   0  0
    9.0937    3.7536    0.0000 C   0  0
    9.0946    5.2536    0.0000 C   0  0
   10.3940    6.0030    0.0000 C   0  0
   11.6927    5.2523    0.0000 C   0  0
   11.6919    3.7523    0.0000 C   0  0
   10.3925    3.0030    0.0000 C   0  0
   10.3887    1.5022    0.0000 N   0  0
   10.3948    7.5037    0.0000 C   0  0
    9.1830    8.3661    0.0000 C   0  0
    9.6495    9.7917    0.0000 C   0  0
   11.1495    9.7886    0.0000 C   0  0
   11.6101    8.3611    0.0000 S   0  0
    3.9039   -4.7502    0.0000 H   0  0
    4.7674   -3.2489    0.0000 H   0  0
    4.7689   -4.2488    0.0000 H   0  0
    2.1651    1.2500    0.0000 H   0  0
    0.0000    2.5000    0.0000 H   0  0
   -2.1651    1.2500    0.0000 H   0  0
   -2.1651   -1.2500    0.0000 H   0  0
    0.0000   -2.5000    0.0000 H   0  0
    5.1971   -2.5013    0.0000 H   0  0
    7.3629   -1.2525    0.0000 H   0  0
    5.1998    2.4987    0.0000 H   0  0
    3.0340    1.2498    0.0000 H   0  0
    8.2288    5.7541    0.0000 H   0  0
   12.5589    5.7519    0.0000 H   0  0
   12.5577    3.2519    0.0000 H   0  0
    8.2332    8.0535    0.0000 H   0  0
    9.0634   10.6020    0.0000 H   0  0
   11.7390   10.5964    0.0000 H   0  0
    6.9285    3.5002    0.0000 H   0  0
    9.5217    1.0038    0.0000 H   0  0
   11.2536    1.0003    0.0000 H   0  0
  1  2  1  0
  2  3  1  0
  3  4  2  0
  3  5  1  0
  5  6  2  0
  6  7  1  0
  7  8  2  0
  8  9  1  0
  9 10  2  0
  5 10  1  0
  3 11  1  0
 11 12  2  0
 12 13  1  0
 13 14  2  0
 14 15  1  0
 15 16  2  0
 11 16  1  0
 14 17  1  0
 17 18  2  0
 17 19  1  0
 19 20  1  0
 20 21  2  0
 21 22  1  0
 22 23  2  0
 23 24  1  0
 24 25  2  0
 20 25  1  0
 25 26  1  0
 22 27  1  0
 27 28  2  0
 28 29  1  0
 29 30  2  0
 30 31  1  0
 27 31  1  0
  1 32  1  0
  1 33  1  0
  1 34  1  0
  6 35  1  0
  7 36  1  0
  8 37  1  0
  9 38  1  0
 10 39  1  0
 12 40  1  0
 13 41  1  0
 15 42  1  0
 16 43  1  0
 21 44  1  0
 23 45  1  0
 24 46  1  0
 28 47  1  0
 29 48  1  0
 30 49  1  0
 19 50  1  0
 26 51  1  0
 26 52  1  0
M  END
> <Name>
CHEMBL471868

> <ALogP>
4.312

> <Molecular_Weight>
448.4739

> <Num_H_Acceptors>
4

> <Num_H_Donors>
2

> <Num_RotatableBonds>
6

> <FormalCharge>
0

$$$$
CHEMBL257631
  SciTegic01131515592D

 68 73  0  0  0  0            999 V2000
    9.9956   13.0401    0.0000 N   0  0
    9.2434   14.3388    0.0000 C   0  0
    9.9889   15.6404    0.0000 C   0  0
    9.2345   16.9369    0.0000 C   0  0
    7.7345   16.9317    0.0000 C   0  0
    6.9889   15.6302    0.0000 C   0  0
    7.7433   14.3336    0.0000 C   0  0
    7.0000   13.0298    0.0000 N   0  0
    7.7566   11.7337    0.0000 C   0  0
    8.9566   11.7398    0.0000 O   0  0
    7.0133   10.4298    0.0000 C   0  0
    7.7677    9.1333    0.0000 C   0  0
    7.0221    7.8318    0.0000 C   0  0
    5.5221    7.8267    0.0000 C   0  0
    4.7760    6.5244    0.0000 C   0  0
    3.2752    6.5184    0.0000 N   0  0
    2.5292    5.2161    0.0000 C   0  0
    1.0292    5.2080    0.0000 N   0  0
    0.2863    3.9049    0.0000 C   0  0
   -1.2145    3.8936    0.0000 N   0  0
   -1.9754    5.1872    0.0000 C   0  0
   -0.7481    5.8317    0.0000 C   0  0
   -2.0531    6.5713    0.0000 C   0  0
    1.0434    2.6099    0.0000 N   0  0
    2.5434    2.6180    0.0000 C   0  0
    3.3026    1.3234    0.0000 N   0  0
    2.5889    0.0182    0.0000 C   0  0
    1.7138    1.2033    0.0000 C   0  0
    0.2917    0.7475    0.0000 C   0  0
   -1.0028    1.5132    0.0000 C   0  0
   -2.3155    0.7475    0.0000 C   0  0
   -2.3155   -0.7475    0.0000 C   0  0
   -1.0028   -1.5132    0.0000 C   0  0
    0.2917   -0.7475    0.0000 C   0  0
    1.7138   -1.2033    0.0000 C   0  0
    3.2863    3.9212    0.0000 N   0  0
    4.7677    9.1232    0.0000 C   0  0
    5.5133   10.4248    0.0000 C   0  0
   10.9889   15.6438    0.0000 H   0  0
    9.7315   17.8046    0.0000 H   0  0
    7.2316   17.7961    0.0000 H   0  0
    5.9889   15.6268    0.0000 H   0  0
    8.7677    9.1367    0.0000 H   0  0
    7.5250    6.9674    0.0000 H   0  0
    5.2792    5.6603    0.0000 H   0  0
    4.2794    5.6565    0.0000 H   0  0
   -2.9754    5.1794    0.0000 H   0  0
   -0.2509    4.9641    0.0000 H   0  0
   -0.2230    6.6827    0.0000 H   0  0
   -3.0529    6.5522    0.0000 H   0  0
   -1.5927    7.4590    0.0000 H   0  0
    3.0815   -0.8521    0.0000 H   0  0
    2.6947    1.3979    0.0000 H   0  0
    1.0320    1.9348    0.0000 H   0  0
   -0.9997    2.5132    0.0000 H   0  0
   -3.1826    1.2456    0.0000 H   0  0
   -3.1826   -1.2456    0.0000 H   0  0
   -0.9997   -2.5132    0.0000 H   0  0
    2.6959   -1.3914    0.0000 H   0  0
    1.0377   -1.9401    0.0000 H   0  0
    3.7677    9.1198    0.0000 H   0  0
    5.0104   11.2891    0.0000 H   0  0
    9.4973   12.1730    0.0000 H   0  0
   10.9956   13.0418    0.0000 H   0  0
    6.0000   13.0247    0.0000 H   0  0
    2.7720    7.3826    0.0000 H   0  0
   -1.7077    3.0237    0.0000 H   0  0
    4.3026    1.3305    0.0000 H   0  0
  1  2  1  0
  2  3  2  0
  3  4  1  0
  4  5  2  0
  5  6  1  0
  6  7  2  0
  2  7  1  0
  7  8  1  0
  8  9  1  0
  9 10  2  0
  9 11  1  0
 11 12  2  0
 12 13  1  0
 13 14  2  0
 14 15  1  0
 15 16  1  0
 16 17  1  0
 17 18  2  0
 18 19  1  0
 19 20  1  0
 20 21  1  0
 21 22  1  0
 22 23  1  0
 21 23  1  0
 19 24  2  0
 24 25  1  0
 25 26  1  0
 26 27  1  0
 27 28  1  0
 28 29  1  0
 29 30  2  0
 30 31  1  0
 31 32  2  0
 32 33  1  0
 33 34  2  0
 29 34  1  0
 34 35  1  0
 27 35  1  0
 25 36  2  0
 17 36  1  0
 14 37  1  0
 37 38  2  0
 11 38  1  0
  3 39  1  0
  4 40  1  0
  5 41  1  0
  6 42  1  0
 12 43  1  0
 13 44  1  0
 15 45  1  0
 15 46  1  0
 21 47  1  0
 22 48  1  0
 22 49  1  0
 23 50  1  0
 23 51  1  0
 27 52  1  0
 28 53  1  0
 28 54  1  0
 30 55  1  0
 31 56  1  0
 32 57  1  0
 33 58  1  0
 35 59  1  0
 35 60  1  0
 37 61  1  0
 38 62  1  0
  1 63  1  0
  1 64  1  0
  8 65  1  0
 16 66  1  0
 20 67  1  0
 26 68  1  0
M  END
> <Name>
CHEMBL257631

> <ALogP>
3.637

> <Molecular_Weight>
506.6015

> <Num_H_Acceptors>
8

> <Num_H_Donors>
5

> <Num_RotatableBonds>
9

> <FormalCharge>
0

$$$$
CHEMBL238568
  SciTegic01131515592D

 46 49  0  0  0  0            999 V2000
  -10.4126   -3.7373    0.0000 N   0  0
  -11.7133   -2.9885    0.0000 C   0  0
  -13.0129   -3.7374    0.0000 C   0  0
  -14.3114   -2.9864    0.0000 C   0  0
  -14.3102   -1.4864    0.0000 C   0  0
  -13.0105   -0.7374    0.0000 C   0  0
  -11.7120   -1.4884    0.0000 C   0  0
  -10.4101   -0.7417    0.0000 N   0  0
   -9.1120   -1.4949    0.0000 C   0  0
   -9.1151   -2.6949    0.0000 O   0  0
   -7.8102   -0.7482    0.0000 C   0  0
   -6.5117   -1.4992    0.0000 C   0  0
   -5.2121   -0.7502    0.0000 C   0  0
   -5.2109    0.7498    0.0000 C   0  0
   -3.9106    1.4992    0.0000 C   0  0
   -2.6111    0.7486    0.0000 C   0  0
   -2.6111   -0.7486    0.0000 C   0  0
   -1.2964   -1.4973    0.0000 O   0  0
    0.0000   -0.7486    0.0000 C   0  0
    1.2964   -1.4973    0.0000 C   0  0
    2.5929   -0.7486    0.0000 C   0  0
    2.5929    0.7486    0.0000 C   0  0
    1.2964    1.4973    0.0000 C   0  0
    0.0000    0.7486    0.0000 C   0  0
   -1.2964    1.4973    0.0000 C   0  0
   -1.2928    2.6973    0.0000 O   0  0
   -6.5094    1.5008    0.0000 C   0  0
   -7.8090    0.7518    0.0000 C   0  0
  -13.0137   -4.7374    0.0000 H   0  0
  -15.1778   -3.4857    0.0000 H   0  0
  -15.1758   -0.9857    0.0000 H   0  0
  -13.0098    0.2626    0.0000 H   0  0
   -6.5125   -2.4992    0.0000 H   0  0
   -4.3464   -1.2508    0.0000 H   0  0
   -3.9102    2.4992    0.0000 H   0  0
   -4.7763    1.9998    0.0000 H   0  0
   -3.4756   -1.2512    0.0000 H   0  0
    1.2964   -2.4973    0.0000 H   0  0
    3.4589   -1.2486    0.0000 H   0  0
    3.4589    1.2486    0.0000 H   0  0
    1.2964    2.4973    0.0000 H   0  0
   -6.5086    2.5008    0.0000 H   0  0
   -8.6747    1.2525    0.0000 H   0  0
   -9.5469   -3.2368    0.0000 H   0  0
  -10.4117   -4.7373    0.0000 H   0  0
  -10.4076    0.2583    0.0000 H   0  0
  1  2  1  0
  2  3  2  0
  3  4  1  0
  4  5  2  0
  5  6  1  0
  6  7  2  0
  2  7  1  0
  7  8  1  0
  8  9  1  0
  9 10  2  0
  9 11  1  0
 11 12  2  0
 12 13  1  0
 13 14  2  0
 14 15  1  0
 15 16  1  0
 16 17  2  0
 17 18  1  0
 18 19  1  0
 19 20  2  0
 20 21  1  0
 21 22  2  0
 22 23  1  0
 23 24  2  0
 19 24  1  0
 24 25  1  0
 16 25  1  0
 25 26  2  0
 14 27  1  0
 27 28  2  0
 11 28  1  0
  3 29  1  0
  4 30  1  0
  5 31  1  0
  6 32  1  0
 12 33  1  0
 13 34  1  0
 15 35  1  0
 15 36  1  0
 17 37  1  0
 20 38  1  0
 21 39  1  0
 22 40  1  0
 23 41  1  0
 27 42  1  0
 28 43  1  0
  1 44  1  0
  1 45  1  0
  8 46  1  0
M  END
> <Name>
CHEMBL238568

> <ALogP>
3.36

> <Molecular_Weight>
370.40062

> <Num_H_Acceptors>
4

> <Num_H_Donors>
2

> <Num_RotatableBonds>
4

> <FormalCharge>
0

$$$$
CHEMBL403467
  SciTegic01131515592D

 49 52  0  0  0  0            999 V2000
   -3.6267    2.9927    0.0000 C   0  0
   -3.6187    1.4919    0.0000 O   0  0
   -2.3155    0.7475    0.0000 C   0  0
   -2.3155   -0.7475    0.0000 C   0  0
   -1.0028   -1.5132    0.0000 C   0  0
    0.2917   -0.7475    0.0000 C   0  0
    1.7138   -1.2033    0.0000 N   0  0
    2.5889    0.0182    0.0000 C   0  0
    4.0872    0.0382    0.0000 N   0  0
    4.8208    1.3475    0.0000 C   0  0
    6.3215    1.3677    0.0000 C   0  0
    7.0890    0.0789    0.0000 C   0  0
    8.5888    0.0991    0.0000 C   0  0
    9.3213    1.4081    0.0000 C   0  0
    8.5538    2.6970    0.0000 C   0  0
    7.0540    2.6768    0.0000 C   0  0
   10.8219    1.4314    0.0000 C   0  0
   11.4377    0.4014    0.0000 O   0  0
   11.5529    2.7422    0.0000 N   0  0
   13.0535    2.7655    0.0000 C   0  0
   13.7860    4.0745    0.0000 C   0  0
   15.2859    4.0948    0.0000 C   0  0
   16.0534    2.8060    0.0000 C   0  0
   15.3210    1.4969    0.0000 C   0  0
   13.8211    1.4767    0.0000 C   0  0
   13.0856    0.1684    0.0000 N   0  0
    1.7138    1.2033    0.0000 S   0  0
    0.2917    0.7475    0.0000 C   0  0
   -1.0028    1.5132    0.0000 C   0  0
   -4.4951    3.4886    0.0000 H   0  0
   -2.7632    3.4971    0.0000 H   0  0
   -3.6316    3.9927    0.0000 H   0  0
   -3.1826   -1.2456    0.0000 H   0  0
   -0.9997   -2.5132    0.0000 H   0  0
    4.3095    2.2069    0.0000 H   0  0
    3.8209    1.3345    0.0000 H   0  0
    6.6007   -0.7938    0.0000 H   0  0
    9.1005   -0.7601    0.0000 H   0  0
    9.0421    3.5696    0.0000 H   0  0
    6.5424    3.5360    0.0000 H   0  0
   13.2744    4.9338    0.0000 H   0  0
   15.7742    4.9675    0.0000 H   0  0
   17.0533    2.8195    0.0000 H   0  0
   15.8326    0.6377    0.0000 H   0  0
   -0.9997    2.5132    0.0000 H   0  0
    4.5985   -0.8211    0.0000 H   0  0
   11.0398    3.6005    0.0000 H   0  0
   12.0857    0.1563    0.0000 H   0  0
   13.5958   -0.6917    0.0000 H   0  0
  1  2  1  0
  2  3  1  0
  3  4  2  0
  4  5  1  0
  5  6  2  0
  6  7  1  0
  7  8  2  0
  8  9  1  0
  9 10  1  0
 10 11  1  0
 11 12  2  0
 12 13  1  0
 13 14  2  0
 14 15  1  0
 15 16  2  0
 11 16  1  0
 14 17  1  0
 17 18  2  0
 17 19  1  0
 19 20  1  0
 20 21  2  0
 21 22  1  0
 22 23  2  0
 23 24  1  0
 24 25  2  0
 20 25  1  0
 25 26  1  0
  8 27  1  0
 27 28  1  0
  6 28  1  0
 28 29  2  0
  3 29  1  0
  1 30  1  0
  1 31  1  0
  1 32  1  0
  4 33  1  0
  5 34  1  0
 10 35  1  0
 10 36  1  0
 12 37  1  0
 13 38  1  0
 15 39  1  0
 16 40  1  0
 21 41  1  0
 22 42  1  0
 23 43  1  0
 24 44  1  0
 29 45  1  0
  9 46  1  0
 19 47  1  0
 26 48  1  0
 26 49  1  0
M  END
> <Name>
CHEMBL403467

> <ALogP>
3.397

> <Molecular_Weight>
404.4848

> <Num_H_Acceptors>
5

> <Num_H_Donors>
3

> <Num_RotatableBonds>
6

> <FormalCharge>
0

$$$$
CHEMBL242533
  SciTegic01131515592D

 37 39  0  0  0  0            999 V2000
   -0.3593   -7.7897    0.0000 O   0  0
    0.3836   -6.4857    0.0000 N   0  0
    1.8844   -6.4761    0.0000 C   0  0
    2.4907   -7.5116    0.0000 O   0  0
    2.6272   -5.1720    0.0000 C   0  0
    4.1280   -5.1624    0.0000 C   0  0
    4.8709   -3.8583    0.0000 C   0  0
    6.3709   -3.8465    0.0000 C   0  0
    7.1107   -2.5417    0.0000 C   0  0
    6.3505   -1.2485    0.0000 C   0  0
    4.8506   -1.2602    0.0000 C   0  0
    4.1108   -2.5652    0.0000 C   0  0
    4.0872    0.0320    0.0000 C   0  0
    4.6772    1.0770    0.0000 O   0  0
    2.5889    0.0182    0.0000 C   0  0
    1.7138    1.2033    0.0000 C   0  0
    0.2917    0.7475    0.0000 C   0  0
   -1.0028    1.5132    0.0000 C   0  0
   -2.3155    0.7475    0.0000 C   0  0
   -2.3155   -0.7475    0.0000 C   0  0
   -1.0028   -1.5132    0.0000 C   0  0
    0.2917   -0.7475    0.0000 C   0  0
    1.7138   -1.2033    0.0000 N   0  0
    2.1220   -4.3090    0.0000 H   0  0
    4.6333   -6.0253    0.0000 H   0  0
    6.8777   -4.7086    0.0000 H   0  0
    8.1107   -2.5338    0.0000 H   0  0
    6.8437   -0.3786    0.0000 H   0  0
    3.1108   -2.5730    0.0000 H   0  0
    2.0210    2.1549    0.0000 H   0  0
   -0.9997    2.5132    0.0000 H   0  0
   -3.1826    1.2456    0.0000 H   0  0
   -3.1826   -1.2456    0.0000 H   0  0
   -0.9997   -2.5132    0.0000 H   0  0
   -1.3593   -7.7962    0.0000 H   0  0
   -0.1217   -5.6227    0.0000 H   0  0
    2.0279   -2.1527    0.0000 H   0  0
  1  2  1  0
  2  3  1  0
  3  4  2  0
  3  5  1  0
  5  6  2  0
  6  7  1  0
  7  8  2  0
  8  9  1  0
  9 10  2  0
 10 11  1  0
 11 12  2  0
  7 12  1  0
 11 13  1  0
 13 14  2  0
 13 15  1  0
 15 16  2  0
 16 17  1  0
 17 18  2  0
 18 19  1  0
 19 20  2  0
 20 21  1  0
 21 22  2  0
 17 22  1  0
 22 23  1  0
 15 23  1  0
  5 24  1  0
  6 25  1  0
  8 26  1  0
  9 27  1  0
 10 28  1  0
 12 29  1  0
 16 30  1  0
 18 31  1  0
 19 32  1  0
 20 33  1  0
 21 34  1  0
  1 35  1  0
  2 36  1  0
 23 37  1  0
M  STY  1   1 DAT
M  SAL   1  1  23
M  SDT   1 MRV_IMPLICIT_H
M  SDD   1     0.0000    0.0000    DR    ALL  0       0
M  SED   1 IMPL_H1
M  END
> <Name>
CHEMBL242533

> <ALogP>
3.301

> <Molecular_Weight>
306.31536

> <Num_H_Acceptors>
3

> <Num_H_Donors>
3

> <Num_RotatableBonds>
4

> <FormalCharge>
0

$$$$
CHEMBL1822046
  SciTegic01131515592D

 56 57  0  0  0  0            999 V2000
   -3.8683    6.0168    0.0000 C   0  0
   -2.5735    5.2578    0.0000 C   0  0
   -1.2691    6.0001    0.0000 C   0  0
   -2.5824    3.7570    0.0000 C   0  0
   -1.2876    2.9981    0.0000 C   0  0
   -1.2964    1.4973    0.0000 C   0  0
   -2.6111    0.7486    0.0000 C   0  0
   -3.9122    1.4966    0.0000 O   0  0
   -5.2109    0.7445    0.0000 C   0  0
   -6.5121    1.4924    0.0000 C   0  0
   -7.8109    0.7403    0.0000 C   0  0
   -9.1121    1.4882    0.0000 C   0  0
  -10.4109    0.7361    0.0000 C   0  0
  -11.7121    1.4840    0.0000 C   0  0
  -13.0109    0.7319    0.0000 C   0  0
  -13.0089   -0.4681    0.0000 O   0  0
  -14.3121    1.4798    0.0000 N   0  0
  -15.6109    0.7277    0.0000 O   0  0
   -2.6111   -0.7486    0.0000 C   0  0
   -1.2964   -1.4973    0.0000 C   0  0
    0.0000   -0.7486    0.0000 C   0  0
    1.2964   -1.4973    0.0000 C   0  0
    2.5929   -0.7486    0.0000 C   0  0
    2.5929    0.7486    0.0000 C   0  0
    3.6321    1.3486    0.0000 O   0  0
    1.2964    1.4973    0.0000 O   0  0
    0.0000    0.7486    0.0000 C   0  0
   -3.8623    7.0168    0.0000 H   0  0
   -4.7312    6.5221    0.0000 H   0  0
   -4.7374    5.5222    0.0000 H   0  0
   -3.4426    4.7633    0.0000 H   0  0
   -1.2622    7.0000    0.0000 H   0  0
   -0.4064    5.4944    0.0000 H   0  0
   -0.3997    6.4942    0.0000 H   0  0
   -3.4515    3.2625    0.0000 H   0  0
   -2.5888    2.7571    0.0000 H   0  0
   -0.4185    3.4927    0.0000 H   0  0
   -0.4246    2.4928    0.0000 H   0  0
   -4.3442    0.2457    0.0000 H   0  0
   -5.2093   -0.2555    0.0000 H   0  0
   -5.6470    1.9939    0.0000 H   0  0
   -6.5138    2.4924    0.0000 H   0  0
   -6.9442    0.2415    0.0000 H   0  0
   -7.8093   -0.2597    0.0000 H   0  0
   -8.2470    1.9897    0.0000 H   0  0
   -9.1137    2.4882    0.0000 H   0  0
   -9.5441    0.2373    0.0000 H   0  0
  -10.4093   -0.2639    0.0000 H   0  0
  -12.5788    1.9827    0.0000 H   0  0
  -11.7137    2.4840    0.0000 H   0  0
   -3.4756   -1.2512    0.0000 H   0  0
   -1.2934   -2.4973    0.0000 H   0  0
    1.2964   -2.4973    0.0000 H   0  0
    3.4589   -1.2486    0.0000 H   0  0
  -14.3137    2.4798    0.0000 H   0  0
  -16.4778    1.2260    0.0000 H   0  0
  1  2  1  0
  2  3  1  0
  2  4  1  0
  4  5  1  0
  5  6  1  0
  6  7  2  0
  7  8  1  0
  8  9  1  0
  9 10  1  0
 10 11  1  0
 11 12  1  0
 12 13  1  0
 13 14  1  0
 14 15  1  0
 15 16  2  0
 15 17  1  0
 17 18  1  0
  7 19  1  0
 19 20  2  0
 20 21  1  0
 21 22  1  0
 22 23  2  0
 23 24  1  0
 24 25  2  0
 24 26  1  0
 26 27  1  0
  6 27  1  0
 21 27  2  0
  1 28  1  0
  1 29  1  0
  1 30  1  0
  2 31  1  0
  3 32  1  0
  3 33  1  0
  3 34  1  0
  4 35  1  0
  4 36  1  0
  5 37  1  0
  5 38  1  0
  9 39  1  0
  9 40  1  0
 10 41  1  0
 10 42  1  0
 11 43  1  0
 11 44  1  0
 12 45  1  0
 12 46  1  0
 13 47  1  0
 13 48  1  0
 14 49  1  0
 14 50  1  0
 19 51  1  0
 20 52  1  0
 22 53  1  0
 23 54  1  0
 17 55  1  0
 18 56  1  0
M  END
> <Name>
CHEMBL1822046

> <ALogP>
4.794

> <Molecular_Weight>
375.45866

> <Num_H_Acceptors>
5

> <Num_H_Donors>
2

> <Num_RotatableBonds>
11

> <FormalCharge>
0

$$$$
CHEMBL251145
  SciTegic01131515592D

 61 64  0  0  0  0            999 V2000
    2.5973   -1.5031    0.0000 N   0  0
    1.2990   -0.7500    0.0000 C   0  0
    1.2990    0.7500    0.0000 C   0  0
    0.0000    1.5000    0.0000 C   0  0
   -1.2990    0.7500    0.0000 C   0  0
   -1.2990   -0.7500    0.0000 C   0  0
    0.0000   -1.5000    0.0000 C   0  0
    0.0031   -3.0008    0.0000 N   0  0
    1.3039   -3.7494    0.0000 C   0  0
    2.3421   -3.1476    0.0000 O   0  0
    1.3070   -5.2502    0.0000 C   0  0
    2.6060   -6.0003    0.0000 C   0  0
    2.6061   -7.5003    0.0000 C   0  0
    1.3071   -8.2503    0.0000 C   0  0
    0.0080   -7.5003    0.0000 C   0  0
    0.0080   -6.0003    0.0000 C   0  0
    1.3071   -9.7511    0.0000 C   0  0
    2.6071  -10.5010    0.0000 C   0  0
    2.6071  -11.7010    0.0000 O   0  0
    3.9071   -9.7510    0.0000 N   0  0
    5.2071  -10.5010    0.0000 C   0  0
    6.5075   -9.7532    0.0000 C   0  0
    7.8052  -10.5054    0.0000 C   0  0
    7.8027  -12.0054    0.0000 C   0  0
    6.5024  -12.7532    0.0000 C   0  0
    5.2046  -12.0010    0.0000 C   0  0
    6.4999  -14.2540    0.0000 C   0  0
    6.4978  -15.4540    0.0000 N   0  0
    0.0071  -10.5011    0.0000 C   0  0
    0.0072  -11.7011    0.0000 O   0  0
   -1.2929   -9.7511    0.0000 N   0  0
   -2.5928  -10.5012    0.0000 C   0  0
   -3.8933   -9.7535    0.0000 C   0  0
   -5.1910  -10.5057    0.0000 C   0  0
   -5.1884  -12.0057    0.0000 C   0  0
   -3.8880  -12.7535    0.0000 C   0  0
   -2.5903  -12.0012    0.0000 C   0  0
   -3.8854  -14.2543    0.0000 C   0  0
   -3.8833  -15.4543    0.0000 N   0  0
    2.1651    1.2500    0.0000 H   0  0
    0.0000    2.5000    0.0000 H   0  0
   -2.1651    1.2500    0.0000 H   0  0
   -2.1651   -1.2500    0.0000 H   0  0
    3.4721   -5.5003    0.0000 H   0  0
    3.4721   -8.0003    0.0000 H   0  0
   -0.8580   -8.0004    0.0000 H   0  0
   -0.8581   -5.5004    0.0000 H   0  0
    1.3071  -10.7511    0.0000 H   0  0
    6.5092   -8.7532    0.0000 H   0  0
    8.6721  -10.0069    0.0000 H   0  0
    8.6679  -12.5069    0.0000 H   0  0
    4.3378  -12.4996    0.0000 H   0  0
   -3.8950   -8.7535    0.0000 H   0  0
   -6.0579  -10.0073    0.0000 H   0  0
   -6.0535  -12.5073    0.0000 H   0  0
   -1.7234  -12.4997    0.0000 H   0  0
    2.5958   -2.5031    0.0000 H   0  0
    3.4642   -1.0046    0.0000 H   0  0
   -0.8621   -3.5023    0.0000 H   0  0
    3.9071   -8.7510    0.0000 H   0  0
   -1.2929   -8.7511    0.0000 H   0  0
  1  2  1  0
  2  3  2  0
  3  4  1  0
  4  5  2  0
  5  6  1  0
  6  7  2  0
  2  7  1  0
  7  8  1  0
  8  9  1  0
  9 10  2  0
  9 11  1  0
 11 12  2  0
 12 13  1  0
 13 14  2  0
 14 15  1  0
 15 16  2  0
 11 16  1  0
 14 17  1  0
 17 18  1  0
 18 19  2  0
 18 20  1  0
 20 21  1  0
 21 22  2  0
 22 23  1  0
 23 24  2  0
 24 25  1  0
 25 26  2  0
 21 26  1  0
 25 27  1  0
 27 28  3  0
 17 29  1  0
 29 30  2  0
 29 31  1  0
 31 32  1  0
 32 33  2  0
 33 34  1  0
 34 35  2  0
 35 36  1  0
 36 37  2  0
 32 37  1  0
 36 38  1  0
 38 39  3  0
  3 40  1  0
  4 41  1  0
  5 42  1  0
  6 43  1  0
 12 44  1  0
 13 45  1  0
 15 46  1  0
 16 47  1  0
 17 48  1  0
 22 49  1  0
 23 50  1  0
 24 51  1  0
 26 52  1  0
 33 53  1  0
 34 54  1  0
 35 55  1  0
 37 56  1  0
  1 57  1  0
  1 58  1  0
  8 59  1  0
 20 60  1  0
 31 61  1  0
M  END
> <Name>
CHEMBL251145

> <ALogP>
3.206

> <Molecular_Weight>
514.53408

> <Num_H_Acceptors>
6

> <Num_H_Donors>
4

> <Num_RotatableBonds>
7

> <FormalCharge>
0

$$$$
CHEMBL1630109
  SciTegic01131515592D

 61 65  0  0  0  0            999 V2000
  -10.3933   -3.7627    0.0000 O   0  0
   -9.0957   -3.0087    0.0000 N   0  0
   -9.0989   -1.5079    0.0000 C   0  0
  -10.1396   -0.9104    0.0000 O   0  0
   -7.8012   -0.7539    0.0000 C   0  0
   -7.8044    0.7470    0.0000 C   0  0
   -6.5067    1.5010    0.0000 C   0  0
   -6.5078    3.0010    0.0000 C   0  0
   -5.2092    3.7519    0.0000 C   0  0
   -3.9097    3.0028    0.0000 C   0  0
   -3.9086    1.5029    0.0000 C   0  0
   -5.2071    0.7519    0.0000 C   0  0
   -2.6111    0.7486    0.0000 C   0  0
   -2.6111   -0.7486    0.0000 C   0  0
   -1.2964   -1.4973    0.0000 C   0  0
    0.0000   -0.7486    0.0000 C   0  0
    1.2964   -1.4973    0.0000 N   0  0
    2.5929   -0.7486    0.0000 C   0  0
    2.5929    0.7486    0.0000 N   0  0
    1.2964    1.4973    0.0000 C   0  0
    1.2995    2.9981    0.0000 N   0  0
    2.6003    3.7467    0.0000 C   0  0
    2.6056    5.2467    0.0000 C   0  0
    3.9072    5.9922    0.0000 C   0  0
    5.2037    5.2377    0.0000 C   0  0
    6.5076    5.9810    0.0000 O   0  0
    7.8036    5.2242    0.0000 C   0  0
    9.1075    5.9675    0.0000 C   0  0
   10.4024    5.2103    0.0000 C   0  0
   11.7055    5.9531    0.0000 C   0  0
   11.7138    7.4531    0.0000 C   0  0
   10.4189    8.2103    0.0000 C   0  0
   10.4255    9.4102    0.0000 F   0  0
    9.1158    7.4674    0.0000 C   0  0
    5.1985    3.7377    0.0000 C   0  0
    6.2356    3.1342    0.0000 Cl  0  0
    3.8969    2.9922    0.0000 C   0  0
    0.0000    0.7486    0.0000 C   0  0
   -1.2964    1.4973    0.0000 C   0  0
   -6.9339   -1.2517    0.0000 H   0  0
   -8.6716    1.2448    0.0000 H   0  0
   -7.3741    3.5004    0.0000 H   0  0
   -5.2099    4.7519    0.0000 H   0  0
   -3.0440    3.5034    0.0000 H   0  0
   -5.2064   -0.2481    0.0000 H   0  0
   -3.4756   -1.2512    0.0000 H   0  0
   -1.2934   -2.4973    0.0000 H   0  0
    3.4589   -1.2486    0.0000 H   0  0
    1.7413    5.7497    0.0000 H   0  0
    3.9107    6.9922    0.0000 H   0  0
    7.7984    4.2242    0.0000 H   0  0
    6.9351    4.7286    0.0000 H   0  0
   10.3969    4.2103    0.0000 H   0  0
   12.5688    5.4484    0.0000 H   0  0
   12.5826    7.9483    0.0000 H   0  0
    8.2525    7.9722    0.0000 H   0  0
    3.8934    1.9922    0.0000 H   0  0
   -1.2934    2.4973    0.0000 H   0  0
  -10.3912   -4.7627    0.0000 H   0  0
   -8.2284   -3.5066    0.0000 H   0  0
    0.4344    3.4996    0.0000 H   0  0
  1  2  1  0
  2  3  1  0
  3  4  2  0
  3  5  1  0
  5  6  2  0
  6  7  1  0
  7  8  2  0
  8  9  1  0
  9 10  2  0
 10 11  1  0
 11 12  2  0
  7 12  1  0
 11 13  1  0
 13 14  2  0
 14 15  1  0
 15 16  2  0
 16 17  1  0
 17 18  2  0
 18 19  1  0
 19 20  2  0
 20 21  1  0
 21 22  1  0
 22 23  2  0
 23 24  1  0
 24 25  2  0
 25 26  1  0
 26 27  1  0
 27 28  1  0
 28 29  2  0
 29 30  1  0
 30 31  2  0
 31 32  1  0
 32 33  1  0
 32 34  2  0
 28 34  1  0
 25 35  1  0
 35 36  1  0
 35 37  2  0
 22 37  1  0
 20 38  1  0
 16 38  1  0
 38 39  2  0
 13 39  1  0
  5 40  1  0
  6 41  1  0
  8 42  1  0
  9 43  1  0
 10 44  1  0
 12 45  1  0
 14 46  1  0
 15 47  1  0
 18 48  1  0
 23 49  1  0
 24 50  1  0
 27 51  1  0
 27 52  1  0
 29 53  1  0
 30 54  1  0
 31 55  1  0
 34 56  1  0
 37 57  1  0
 39 58  1  0
  1 59  1  0
  2 60  1  0
 21 61  1  0
M  END
> <Name>
CHEMBL1630109

> <ALogP>
6.278

> <Molecular_Weight>
540.97208

> <Num_H_Acceptors>
6

> <Num_H_Donors>
3

> <Num_RotatableBonds>
8

> <FormalCharge>
0

$$$$
CHEMBL2312466
  SciTegic01131515592D

 53 57  0  0  0  0            999 V2000
   14.6722   -5.5061    0.0000 N   0  0
   15.5820   -4.3124    0.0000 C   0  0
   17.0702   -4.5004    0.0000 C   0  0
   17.9771   -3.3056    0.0000 C   0  0
   17.3958   -1.9228    0.0000 C   0  0
   15.9076   -1.7348    0.0000 C   0  0
   15.0006   -2.9296    0.0000 C   0  0
   13.5113   -2.7445    0.0000 N   0  0
   12.6055   -3.9413    0.0000 C   0  0
   13.0725   -5.0467    0.0000 O   0  0
   11.1162   -3.7562    0.0000 C   0  0
   10.2092   -4.9510    0.0000 C   0  0
    8.7211   -4.7629    0.0000 C   0  0
    8.1398   -3.3801    0.0000 C   0  0
    6.6508   -3.1920    0.0000 C   0  0
    5.7427   -4.3868    0.0000 N   0  0
    4.2537   -4.1987    0.0000 C   0  0
    3.3443   -5.3916    0.0000 N   0  0
    1.8565   -5.2005    0.0000 C   0  0
    1.2781   -3.8165    0.0000 C   0  0
    2.1852   -2.6281    0.0000 C   0  0
    3.6753   -2.8147    0.0000 N   0  0
    1.7138   -1.2033    0.0000 C   0  0
    2.5889    0.0182    0.0000 C   0  0
    1.7138    1.2033    0.0000 N   0  3
    0.2917    0.7475    0.0000 C   0  0
   -1.0028    1.5132    0.0000 N   0  0
   -2.3155    0.7475    0.0000 C   0  0
   -2.3155   -0.7475    0.0000 C   0  0
   -1.0028   -1.5132    0.0000 C   0  0
    0.2917   -0.7475    0.0000 N   0  0
    9.0468   -2.1853    0.0000 C   0  0
   10.5349   -2.3734    0.0000 C   0  0
   17.4577   -5.4223    0.0000 H   0  0
   18.9692   -3.4310    0.0000 H   0  0
   18.0004   -1.1263    0.0000 H   0  0
   15.5201   -0.8130    0.0000 H   0  0
   10.5967   -5.8728    0.0000 H   0  0
    8.1164   -5.5594    0.0000 H   0  0
    6.2636   -2.2700    0.0000 H   0  0
    5.6588   -3.0661    0.0000 H   0  0
    1.2502   -5.9957    0.0000 H   0  0
    0.2863   -3.6888    0.0000 H   0  0
    3.5889    0.0254    0.0000 H   0  0
   -3.1826    1.2456    0.0000 H   0  0
   -3.1826   -1.2456    0.0000 H   0  0
   -0.9997   -2.5132    0.0000 H   0  0
    8.6593   -1.2635    0.0000 H   0  0
   11.1395   -1.5769    0.0000 H   0  0
   13.6802   -5.3794    0.0000 H   0  0
   15.0581   -6.4286    0.0000 H   0  0
   13.1222   -1.8233    0.0000 H   0  0
    6.1299   -5.3088    0.0000 H   0  0
  1  2  1  0
  2  3  2  0
  3  4  1  0
  4  5  2  0
  5  6  1  0
  6  7  2  0
  2  7  1  0
  7  8  1  0
  8  9  1  0
  9 10  2  0
  9 11  1  0
 11 12  2  0
 12 13  1  0
 13 14  2  0
 14 15  1  0
 15 16  1  0
 16 17  1  0
 17 18  2  0
 18 19  1  0
 19 20  2  0
 20 21  1  0
 21 22  2  0
 17 22  1  0
 21 23  1  0
 23 24  2  0
 24 25  1  0
 25 26  2  0
 26 27  1  0
 27 28  2  0
 28 29  1  0
 29 30  2  0
 30 31  1  0
 23 31  1  0
 26 31  1  0
 14 32  1  0
 32 33  2  0
 11 33  1  0
  3 34  1  0
  4 35  1  0
  5 36  1  0
  6 37  1  0
 12 38  1  0
 13 39  1  0
 15 40  1  0
 15 41  1  0
 19 42  1  0
 20 43  1  0
 24 44  1  0
 28 45  1  0
 29 46  1  0
 30 47  1  0
 32 48  1  0
 33 49  1  0
  1 50  1  0
  1 51  1  0
  8 52  1  0
 16 53  1  0
M  CHG  1  25   1
M  END
> <Name>
CHEMBL2312466

> <ALogP>
2.114

> <Molecular_Weight>
437.47654

> <Num_H_Acceptors>
6

> <Num_H_Donors>
4

> <Num_RotatableBonds>
6

> <FormalCharge>
1

$$$$
CHEMBL279797
  SciTegic01131515592D

 41 43  0  0  0  0            999 V2000
   -3.6623   10.4941    0.0000 C   0  0
   -4.9591    9.7385    0.0000 O   0  0
   -4.9541    8.2377    0.0000 C   0  0
   -6.2491    7.4808    0.0000 C   0  0
   -6.2411    5.9808    0.0000 C   0  0
   -4.9380    5.2378    0.0000 C   0  0
   -4.9300    3.7369    0.0000 C   0  0
   -3.6267    2.9927    0.0000 N   0  0
   -3.6187    1.4919    0.0000 C   0  0
   -4.6549    0.8867    0.0000 O   0  0
   -2.3155    0.7475    0.0000 C   0  0
   -2.3155   -0.7475    0.0000 C   0  0
   -1.0028   -1.5132    0.0000 C   0  0
    0.2917   -0.7475    0.0000 C   0  0
    1.7138   -1.2033    0.0000 S   0  0
    2.5889    0.0182    0.0000 C   0  0
    1.7138    1.2033    0.0000 C   0  0
    0.2917    0.7475    0.0000 C   0  0
   -1.0028    1.5132    0.0000 C   0  0
    4.0872    0.0320    0.0000 C   0  0
    4.6772    1.0770    0.0000 O   0  0
    4.8506   -1.2602    0.0000 N   0  0
    6.3513   -1.2462    0.0000 O   0  0
   -3.6430    5.9947    0.0000 C   0  0
   -3.6511    7.4947    0.0000 C   0  0
   -3.6656   11.4941    0.0000 H   0  0
   -2.7945    9.9972    0.0000 H   0  0
   -2.7980   10.9971    0.0000 H   0  0
   -7.1178    7.9761    0.0000 H   0  0
   -7.1044    5.4761    0.0000 H   0  0
   -4.9251    2.7370    0.0000 H   0  0
   -5.7935    3.2326    0.0000 H   0  0
   -3.1826   -1.2456    0.0000 H   0  0
   -0.9997   -2.5132    0.0000 H   0  0
    2.0210    2.1549    0.0000 H   0  0
   -0.9997    2.5132    0.0000 H   0  0
   -2.7744    5.4994    0.0000 H   0  0
   -2.7878    7.9993    0.0000 H   0  0
   -2.7632    3.4971    0.0000 H   0  0
    4.3589   -2.1310    0.0000 H   0  0
    6.8599   -2.1072    0.0000 H   0  0
  1  2  1  0
  2  3  1  0
  3  4  2  0
  4  5  1  0
  5  6  2  0
  6  7  1  0
  7  8  1  0
  8  9  1  0
  9 10  2  0
  9 11  1  0
 11 12  2  0
 12 13  1  0
 13 14  2  0
 14 15  1  0
 15 16  1  0
 16 17  2  0
 17 18  1  0
 14 18  1  0
 18 19  2  0
 11 19  1  0
 16 20  1  0
 20 21  2  0
 20 22  1  0
 22 23  1  0
  6 24  1  0
 24 25  2  0
  3 25  1  0
  1 26  1  0
  1 27  1  0
  1 28  1  0
  4 29  1  0
  5 30  1  0
  7 31  1  0
  7 32  1  0
 12 33  1  0
 13 34  1  0
 17 35  1  0
 19 36  1  0
 24 37  1  0
 25 38  1  0
  8 39  1  0
 22 40  1  0
 23 41  1  0
M  END
> <Name>
CHEMBL279797

> <ALogP>
2.773

> <Molecular_Weight>
356.39564

> <Num_H_Acceptors>
4

> <Num_H_Donors>
3

> <Num_RotatableBonds>
5

> <FormalCharge>
0

$$$$
CHEMBL235413
  SciTegic01131515592D

 57 60  0  0  0  0            999 V2000
    3.8990   -0.7562    0.0000 C   0  0
    2.5973   -1.5031    0.0000 O   0  0
    1.2990   -0.7500    0.0000 C   0  0
    1.2990    0.7500    0.0000 C   0  0
    0.0000    1.5000    0.0000 C   0  0
   -1.2990    0.7500    0.0000 C   0  0
   -2.6003    1.4977    0.0000 N   0  0
   -3.8990    0.7455    0.0000 C   0  0
   -5.2003    1.4932    0.0000 C   0  0
   -6.4978    0.7405    0.0000 C   0  0
   -7.7984    1.4878    0.0000 C   0  0
   -7.8015    2.9878    0.0000 C   0  0
   -6.5040    3.7405    0.0000 C   0  0
   -5.2034    2.9932    0.0000 C   0  0
   -9.1013    3.7382    0.0000 C   0  0
  -10.1403    3.1379    0.0000 O   0  0
   -9.1022    5.2391    0.0000 N   0  0
  -10.4020    5.9895    0.0000 C   0  0
  -10.4051    7.4895    0.0000 C   0  0
  -11.7057    8.2369    0.0000 C   0  0
  -13.0032    7.4842    0.0000 C   0  0
  -13.0001    5.9842    0.0000 C   0  0
  -11.6996    5.2369    0.0000 C   0  0
  -11.6935    3.7360    0.0000 O   0  0
  -11.7087    9.7376    0.0000 C   0  0
  -10.4983   10.6018    0.0000 C   0  0
  -10.9670   12.0267    0.0000 C   0  0
  -12.4670   12.0213    0.0000 C   0  0
  -12.9254   10.5930    0.0000 S   0  0
   -1.2990   -0.7500    0.0000 C   0  0
    0.0000   -1.5000    0.0000 C   0  0
    0.0031   -3.0008    0.0000 O   0  0
    1.3039   -3.7494    0.0000 C   0  0
    4.7640   -1.2579    0.0000 H   0  0
    3.9014    0.2438    0.0000 H   0  0
    4.7662   -0.2581    0.0000 H   0  0
    2.1651    1.2500    0.0000 H   0  0
    0.0000    2.5000    0.0000 H   0  0
   -3.8973   -0.2545    0.0000 H   0  0
   -3.0322    0.2468    0.0000 H   0  0
   -6.4958   -0.2595    0.0000 H   0  0
   -8.6634    0.9861    0.0000 H   0  0
   -6.5061    4.7405    0.0000 H   0  0
   -4.3384    3.4950    0.0000 H   0  0
   -9.5401    7.9913    0.0000 H   0  0
  -13.8702    7.9824    0.0000 H   0  0
  -13.8651    5.4825    0.0000 H   0  0
   -9.5480   10.2906    0.0000 H   0  0
  -10.3822   12.8379    0.0000 H   0  0
  -13.0577   12.8282    0.0000 H   0  0
   -2.1651   -1.2500    0.0000 H   0  0
    1.3060   -4.7494    0.0000 H   0  0
    2.1691   -3.2479    0.0000 H   0  0
    2.1709   -4.2477    0.0000 H   0  0
   -2.6021    2.4977    0.0000 H   0  0
   -8.2363    5.7393    0.0000 H   0  0
  -10.8257    3.2390    0.0000 H   0  0
  1  2  1  0
  2  3  1  0
  3  4  2  0
  4  5  1  0
  5  6  2  0
  6  7  1  0
  7  8  1  0
  8  9  1  0
  9 10  2  0
 10 11  1  0
 11 12  2  0
 12 13  1  0
 13 14  2  0
  9 14  1  0
 12 15  1  0
 15 16  2  0
 15 17  1  0
 17 18  1  0
 18 19  2  0
 19 20  1  0
 20 21  2  0
 21 22  1  0
 22 23  2  0
 18 23  1  0
 23 24  1  0
 20 25  1  0
 25 26  2  0
 26 27  1  0
 27 28  2  0
 28 29  1  0
 25 29  1  0
  6 30  1  0
 30 31  2  0
  3 31  1  0
 31 32  1  0
 32 33  1  0
  1 34  1  0
  1 35  1  0
  1 36  1  0
  4 37  1  0
  5 38  1  0
  8 39  1  0
  8 40  1  0
 10 41  1  0
 11 42  1  0
 13 43  1  0
 14 44  1  0
 19 45  1  0
 21 46  1  0
 22 47  1  0
 26 48  1  0
 27 49  1  0
 28 50  1  0
 30 51  1  0
 33 52  1  0
 33 53  1  0
 33 54  1  0
  7 55  1  0
 17 56  1  0
 24 57  1  0
M  END
> <Name>
CHEMBL235413

> <ALogP>
5.203

> <Molecular_Weight>
460.54476

> <Num_H_Acceptors>
5

> <Num_H_Donors>
3

> <Num_RotatableBonds>
8

> <FormalCharge>
0

$$$$
CHEMBL1099095
  SciTegic01131515592D

 48 51  0  0  0  0            999 V2000
    3.0192   -7.9712    0.0000 C   0  0
    3.9258   -6.7752    0.0000 O   0  0
    3.3443   -5.3916    0.0000 C   0  0
    1.8565   -5.2005    0.0000 C   0  0
    1.2781   -3.8165    0.0000 C   0  0
    2.1852   -2.6281    0.0000 C   0  0
    3.6753   -2.8147    0.0000 C   0  0
    4.2537   -4.1987    0.0000 C   0  0
    2.2295   -1.1280    0.0000 N   0  0
    1.0417   -0.2076    0.0000 C   0  0
    1.5416    1.1782    0.0000 N   0  0
    3.0346    1.1479    0.0000 C   0  0
    4.0562    2.2517    0.0000 C   0  0
    5.5330    1.8932    0.0000 C   0  0
    5.9604    0.4606    0.0000 C   0  0
    4.9213   -0.6485    0.0000 C   0  0
    3.4620   -0.2847    0.0000 C   0  0
   -0.3994   -0.6262    0.0000 C   0  0
   -0.8642   -2.0472    0.0000 C   0  0
   -2.3322   -2.3553    0.0000 C   0  0
   -3.3331   -1.2380    0.0000 C   0  0
   -2.8659    0.1874    0.0000 C   0  0
   -3.8650    1.3074    0.0000 C   0  0
   -3.3955    2.7329    0.0000 C   0  0
   -4.3946    3.8528    0.0000 C   0  0
   -5.5695    3.6084    0.0000 O   0  0
   -3.9252    5.2783    0.0000 N   0  0
   -4.9242    6.3983    0.0000 O   0  0
   -1.3979    0.4955    0.0000 C   0  0
    3.4067   -8.8930    0.0000 H   0  0
    2.0270   -7.8461    0.0000 H   0  0
    2.4147   -8.7678    0.0000 H   0  0
    1.2502   -5.9957    0.0000 H   0  0
    0.2863   -3.6888    0.0000 H   0  0
    4.2803   -2.0184    0.0000 H   0  0
    5.2455   -4.3261    0.0000 H   0  0
    3.7674    3.2091    0.0000 H   0  0
    6.2216    2.6183    0.0000 H   0  0
    6.9337    0.2312    0.0000 H   0  0
    5.2043   -1.6076    0.0000 H   0  0
   -0.1968   -2.7918    0.0000 H   0  0
   -2.6437   -3.3055    0.0000 H   0  0
   -4.3117   -1.4434    0.0000 H   0  0
   -4.8440    1.1037    0.0000 H   0  0
   -2.4165    2.9366    0.0000 H   0  0
   -1.0849    1.4453    0.0000 H   0  0
   -2.9461    5.4820    0.0000 H   0  0
   -4.6114    7.3481    0.0000 H   0  0
  1  2  1  0
  2  3  1  0
  3  4  2  0
  4  5  1  0
  5  6  2  0
  6  7  1  0
  7  8  2  0
  3  8  1  0
  6  9  1  0
  9 10  1  0
 10 11  2  0
 11 12  1  0
 12 13  2  0
 13 14  1  0
 14 15  2  0
 15 16  1  0
 16 17  2  0
  9 17  1  0
 12 17  1  0
 10 18  1  0
 18 19  2  0
 19 20  1  0
 20 21  2  0
 21 22  1  0
 22 23  1  0
 23 24  2  0
 24 25  1  0
 25 26  2  0
 25 27  1  0
 27 28  1  0
 22 29  2  0
 18 29  1  0
  1 30  1  0
  1 31  1  0
  1 32  1  0
  4 33  1  0
  5 34  1  0
  7 35  1  0
  8 36  1  0
 13 37  1  0
 14 38  1  0
 15 39  1  0
 16 40  1  0
 19 41  1  0
 20 42  1  0
 21 43  1  0
 23 44  1  0
 24 45  1  0
 29 46  1  0
 27 47  1  0
 28 48  1  0
M  END
> <Name>
CHEMBL1099095

> <ALogP>
4.519

> <Molecular_Weight>
385.41526

> <Num_H_Acceptors>
4

> <Num_H_Donors>
2

> <Num_RotatableBonds>
5

> <FormalCharge>
0

$$$$
CHEMBL237108
  SciTegic01131515592D

 60 63  0  0  1  0            999 V2000
    1.2626   -2.2300    0.0000 C   0  0
    1.2990   -0.7500    0.0000 C   0  0  2  0  0  0
    1.2990    0.7500    0.0000 C   0  0
    0.0000    1.5000    0.0000 N   0  0
   -1.2990    0.7500    0.0000 C   0  0
   -1.2990   -0.7500    0.0000 C   0  0
    0.0000   -1.5000    0.0000 N   0  0
   -0.5104   -2.9114    0.0000 C   0  0
   -1.6918   -3.1218    0.0000 O   0  0
    0.4559   -4.0597    0.0000 O   0  0
   -0.0545   -5.4711    0.0000 C   0  0
    0.9119   -6.6194    0.0000 C   0  0
    0.4009   -8.0297    0.0000 C   0  0
    1.3667   -9.1774    0.0000 C   0  0
    2.8435   -8.9148    0.0000 C   0  0
    3.3545   -7.5045    0.0000 C   0  0
    2.3887   -6.3568    0.0000 C   0  0
    0.0000    3.0008    0.0000 C   0  0
    1.2978    3.7529    0.0000 C   0  0
    1.2954    5.2529    0.0000 C   0  0
   -0.0048    6.0009    0.0000 C   0  0
   -1.3026    5.2488    0.0000 C   0  0
   -1.3002    3.7488    0.0000 N   0  0
   -0.0103    7.5017    0.0000 C   0  0
    1.0270    8.1052    0.0000 O   0  0
   -1.3123    8.2482    0.0000 N   0  0
   -1.3178    9.7490    0.0000 C   0  0
   -2.6180   10.4970    0.0000 C   0  0
   -2.6204   11.9970    0.0000 C   0  0
   -1.3226   12.7491    0.0000 C   0  0
   -0.0223   12.0012    0.0000 C   0  0
   -0.0199   10.5012    0.0000 C   0  0
    1.2795    9.7502    0.0000 N   0  0
    0.3968   -2.7304    0.0000 H   0  0
    2.1287   -2.7299    0.0000 H   0  0
    1.2629   -3.2300    0.0000 H   0  0
    2.1526   -0.2289    0.0000 H   0  0
    0.4215    0.2706    0.0000 H   0  0
    1.2755    1.7497    0.0000 H   0  0
   -2.1530    0.2297    0.0000 H   0  0
   -1.2756    1.7497    0.0000 H   0  0
   -0.4215   -0.2706    0.0000 H   0  0
   -1.2755   -1.7497    0.0000 H   0  0
   -0.6987   -4.7062    0.0000 H   0  0
   -1.0390   -5.6464    0.0000 H   0  0
   -0.5837   -8.2047    0.0000 H   0  0
    1.0260  -10.1175    0.0000 H   0  0
    3.4874   -9.6799    0.0000 H   0  0
    4.3391   -7.3294    0.0000 H   0  0
    2.7294   -5.4166    0.0000 H   0  0
    2.1647    3.2543    0.0000 H   0  0
    2.1607    5.7543    0.0000 H   0  0
   -2.1695    5.7474    0.0000 H   0  0
   -3.4832    9.9956    0.0000 H   0  0
   -3.4872   12.4956    0.0000 H   0  0
   -1.3242   13.7491    0.0000 H   0  0
    0.8429   12.5026    0.0000 H   0  0
   -2.1766    7.7453    0.0000 H   0  0
    1.2798    8.7502    0.0000 H   0  0
    2.1456   10.2502    0.0000 H   0  0
  2  1  1  0
  2  3  1  0
  3  4  1  0
  4  5  1  0
  5  6  1  0
  6  7  1  0
  2  7  1  0
  7  8  1  0
  8  9  2  0
  8 10  1  0
 10 11  1  0
 11 12  1  0
 12 13  2  0
 13 14  1  0
 14 15  2  0
 15 16  1  0
 16 17  2  0
 12 17  1  0
  4 18  1  0
 18 19  2  0
 19 20  1  0
 20 21  2  0
 21 22  1  0
 22 23  2  0
 18 23  1  0
 21 24  1  0
 24 25  2  0
 24 26  1  0
 26 27  1  0
 27 28  2  0
 28 29  1  0
 29 30  2  0
 30 31  1  0
 31 32  2  0
 27 32  1  0
 32 33  1  0
  1 34  1  0
  1 35  1  0
  1 36  1  0
  2 37  1  6
  3 38  1  0
  3 39  1  0
  5 40  1  0
  5 41  1  0
  6 42  1  0
  6 43  1  0
 11 44  1  0
 11 45  1  0
 13 46  1  0
 14 47  1  0
 15 48  1  0
 16 49  1  0
 17 50  1  0
 19 51  1  0
 20 52  1  0
 22 53  1  0
 28 54  1  0
 29 55  1  0
 30 56  1  0
 31 57  1  0
 26 58  1  0
 33 59  1  0
 33 60  1  0
M  END
> <Name>
CHEMBL237108

> <ALogP>
3.239

> <Molecular_Weight>
445.51358

> <Num_H_Acceptors>
6

> <Num_H_Donors>
2

> <Num_RotatableBonds>
6

> <FormalCharge>
0

$$$$
CHEMBL419758
  SciTegic01131515592D

 41 42  0  0  0  0            999 V2000
   13.2259  -10.7755    0.0000 S   0  0
   12.6148   -9.4047    0.0000 C   0  0
   11.1222   -9.2476    0.0000 C   0  0
   10.5111   -7.8769    0.0000 C   0  0
    9.0185   -7.7198    0.0000 C   0  0
    8.4074   -6.3490    0.0000 C   0  0
    6.9148   -6.1919    0.0000 C   0  0
    6.3037   -4.8211    0.0000 C   0  0
    7.0088   -3.8502    0.0000 O   0  0
    4.8111   -4.6641    0.0000 N   0  0
    4.2010   -3.2956    0.0000 C   0  0
    2.7343   -2.9815    0.0000 N   0  0
    2.5987   -1.5004    0.0000 C   0  0
    3.9511   -0.8815    0.0000 C   0  0
    4.9531   -1.9978    0.0000 S   0  0
    1.2990   -0.7500    0.0000 C   0  0
    1.2990    0.7500    0.0000 C   0  0
    0.0000    1.5000    0.0000 C   0  0
   -1.2990    0.7500    0.0000 C   0  0
   -1.2990   -0.7500    0.0000 C   0  0
    0.0000   -1.5000    0.0000 C   0  0
   13.6093   -9.5089    0.0000 H   0  0
   13.2024   -8.5956    0.0000 H   0  0
   10.1276   -9.1434    0.0000 H   0  0
   10.5345  -10.0567    0.0000 H   0  0
   10.1043   -6.9633    0.0000 H   0  0
   11.0987   -7.0677    0.0000 H   0  0
    8.0239   -7.6156    0.0000 H   0  0
    8.4308   -8.5289    0.0000 H   0  0
    8.0006   -5.4355    0.0000 H   0  0
    8.9950   -5.5399    0.0000 H   0  0
    5.9202   -6.0877    0.0000 H   0  0
    6.3271   -7.0010    0.0000 H   0  0
    4.1548    0.0976    0.0000 H   0  0
    2.1651    1.2500    0.0000 H   0  0
    0.0000    2.5000    0.0000 H   0  0
   -2.1651    1.2500    0.0000 H   0  0
   -2.1651   -1.2500    0.0000 H   0  0
    0.0000   -2.5000    0.0000 H   0  0
   14.2204  -10.8801    0.0000 H   0  0
    4.2234   -5.4732    0.0000 H   0  0
  1  2  1  0
  2  3  1  0
  3  4  1  0
  4  5  1  0
  5  6  1  0
  6  7  1  0
  7  8  1  0
  8  9  2  0
  8 10  1  0
 10 11  1  0
 11 12  2  0
 12 13  1  0
 13 14  2  0
 14 15  1  0
 11 15  1  0
 13 16  1  0
 16 17  2  0
 17 18  1  0
 18 19  2  0
 19 20  1  0
 20 21  2  0
 16 21  1  0
  2 22  1  0
  2 23  1  0
  3 24  1  0
  3 25  1  0
  4 26  1  0
  4 27  1  0
  5 28  1  0
  5 29  1  0
  6 30  1  0
  6 31  1  0
  7 32  1  0
  7 33  1  0
 14 34  1  0
 17 35  1  0
 18 36  1  0
 19 37  1  0
 20 38  1  0
 21 39  1  0
  1 40  1  0
 10 41  1  0
M  END
> <Name>
CHEMBL419758

> <ALogP>
4.131

> <Molecular_Weight>
320.4728

> <Num_H_Acceptors>
3

> <Num_H_Donors>
2

> <Num_RotatableBonds>
8

> <FormalCharge>
0

$$$$
CHEMBL255805
  SciTegic01131515592D

 37 39  0  0  0  0            999 V2000
    2.5973   -1.5031    0.0000 N   0  0
    1.2990   -0.7500    0.0000 C   0  0
    1.2990    0.7500    0.0000 C   0  0
    0.0000    1.5000    0.0000 C   0  0
   -1.2990    0.7500    0.0000 C   0  0
   -1.2990   -0.7500    0.0000 C   0  0
    0.0000   -1.5000    0.0000 C   0  0
    0.0031   -3.0008    0.0000 N   0  0
    1.3039   -3.7494    0.0000 C   0  0
    2.3421   -3.1476    0.0000 O   0  0
    1.3070   -5.2502    0.0000 C   0  0
    2.6060   -6.0003    0.0000 C   0  0
    2.6061   -7.5003    0.0000 C   0  0
    1.3071   -8.2503    0.0000 C   0  0
    0.0080   -7.5003    0.0000 N   0  0
    0.0080   -6.0003    0.0000 C   0  0
   -2.5987    1.5004    0.0000 C   0  0
   -2.6012    3.0004    0.0000 C   0  0
   -3.9015    3.7484    0.0000 C   0  0
   -5.1993    2.9963    0.0000 C   0  0
   -5.1969    1.4963    0.0000 C   0  0
   -3.8967    0.7484    0.0000 C   0  0
    2.1651    1.2500    0.0000 H   0  0
    0.0000    2.5000    0.0000 H   0  0
   -2.1651   -1.2500    0.0000 H   0  0
    3.4721   -5.5003    0.0000 H   0  0
    3.4721   -8.0003    0.0000 H   0  0
    1.3071   -9.2503    0.0000 H   0  0
   -0.8581   -5.5004    0.0000 H   0  0
   -1.7360    3.5018    0.0000 H   0  0
   -3.9030    4.7484    0.0000 H   0  0
   -6.0661    3.4949    0.0000 H   0  0
   -6.0621    0.9949    0.0000 H   0  0
   -3.8951   -0.2516    0.0000 H   0  0
    2.5958   -2.5031    0.0000 H   0  0
    3.4642   -1.0046    0.0000 H   0  0
   -0.8621   -3.5023    0.0000 H   0  0
  1  2  1  0
  2  3  2  0
  3  4  1  0
  4  5  2  0
  5  6  1  0
  6  7  2  0
  2  7  1  0
  7  8  1  0
  8  9  1  0
  9 10  2  0
  9 11  1  0
 11 12  2  0
 12 13  1  0
 13 14  2  0
 14 15  1  0
 15 16  2  0
 11 16  1  0
  5 17  1  0
 17 18  2  0
 18 19  1  0
 19 20  2  0
 20 21  1  0
 21 22  2  0
 17 22  1  0
  3 23  1  0
  4 24  1  0
  6 25  1  0
 12 26  1  0
 13 27  1  0
 14 28  1  0
 16 29  1  0
 18 30  1  0
 19 31  1  0
 20 32  1  0
 21 33  1  0
 22 34  1  0
  1 35  1  0
  1 36  1  0
  8 37  1  0
M  END
> <Name>
CHEMBL255805

> <ALogP>
2.235

> <Molecular_Weight>
289.3312

> <Num_H_Acceptors>
3

> <Num_H_Donors>
2

> <Num_RotatableBonds>
3

> <FormalCharge>
0

$$$$
CHEMBL479278
  SciTegic01131515592D

 63 67  0  0  0  0            999 V2000
    2.5973   -1.5031    0.0000 N   0  0
    1.2990   -0.7500    0.0000 C   0  0
    1.2990    0.7500    0.0000 C   0  0
    0.0000    1.5000    0.0000 C   0  0
   -1.2990    0.7500    0.0000 C   0  0
   -1.2990   -0.7500    0.0000 C   0  0
    0.0000   -1.5000    0.0000 C   0  0
    0.0031   -3.0008    0.0000 N   0  0
    1.3039   -3.7494    0.0000 C   0  0
    2.3421   -3.1476    0.0000 O   0  0
    1.3070   -5.2502    0.0000 C   0  0
    2.6060   -6.0003    0.0000 C   0  0
    2.6061   -7.5003    0.0000 C   0  0
    1.3071   -8.2503    0.0000 C   0  0
    1.3071   -9.7511    0.0000 C   0  0
    2.6064  -10.5023    0.0000 N   0  0
    2.6064  -12.0032    0.0000 C   0  0
    3.9039  -12.7559    0.0000 N   0  0
    3.9009  -14.2559    0.0000 C   0  0
    2.6004  -15.0032    0.0000 C   0  0
    1.3029  -14.2506    0.0000 C   0  0
    1.3059  -12.7506    0.0000 N   0  0
    0.0017  -14.9984    0.0000 C   0  0
   -0.0038  -16.4985    0.0000 C   0  0
   -1.3056  -17.2438    0.0000 C   0  0
   -2.6019  -16.4891    0.0000 C   0  0
   -2.5965  -14.9891    0.0000 N   0  0
   -1.2948  -14.2438    0.0000 C   0  0
   -3.9043  -17.2348    0.0000 N   0  0
   -3.9121  -18.7348    0.0000 C   0  0
   -5.2150  -19.4781    0.0000 C   0  0
   -6.5102  -18.7214    0.0000 O   0  0
   -6.5024  -17.2214    0.0000 C   0  0
   -5.1995  -16.4781    0.0000 C   0  0
    0.0080   -7.5003    0.0000 C   0  0
    0.0080   -6.0003    0.0000 C   0  0
    2.1651    1.2500    0.0000 H   0  0
    0.0000    2.5000    0.0000 H   0  0
   -2.1651    1.2500    0.0000 H   0  0
   -2.1651   -1.2500    0.0000 H   0  0
    3.4721   -5.5003    0.0000 H   0  0
    3.4721   -8.0003    0.0000 H   0  0
    0.4409  -10.2509    0.0000 H   0  0
    1.3067  -10.7511    0.0000 H   0  0
    4.7660  -14.7576    0.0000 H   0  0
    2.5984  -16.0032    0.0000 H   0  0
    0.8604  -17.0016    0.0000 H   0  0
   -1.3091  -18.2438    0.0000 H   0  0
   -1.2912  -13.2438    0.0000 H   0  0
   -3.9410  -19.7344    0.0000 H   0  0
   -3.0554  -18.2191    0.0000 H   0  0
   -5.2335  -18.4783    0.0000 H   0  0
   -6.0950  -19.9531    0.0000 H   0  0
   -6.4736  -16.2218    0.0000 H   0  0
   -7.3591  -17.7372    0.0000 H   0  0
   -5.1810  -17.4780    0.0000 H   0  0
   -4.3195  -16.0031    0.0000 H   0  0
   -0.8580   -8.0004    0.0000 H   0  0
   -0.8581   -5.5004    0.0000 H   0  0
    2.5958   -2.5031    0.0000 H   0  0
    3.4642   -1.0046    0.0000 H   0  0
   -0.8621   -3.5023    0.0000 H   0  0
    3.4726  -10.0026    0.0000 H   0  0
  1  2  1  0
  2  3  2  0
  3  4  1  0
  4  5  2  0
  5  6  1  0
  6  7  2  0
  2  7  1  0
  7  8  1  0
  8  9  1  0
  9 10  2  0
  9 11  1  0
 11 12  2  0
 12 13  1  0
 13 14  2  0
 14 15  1  0
 15 16  1  0
 16 17  1  0
 17 18  2  0
 18 19  1  0
 19 20  2  0
 20 21  1  0
 21 22  2  0
 17 22  1  0
 21 23  1  0
 23 24  2  0
 24 25  1  0
 25 26  2  0
 26 27  1  0
 27 28  2  0
 23 28  1  0
 26 29  1  0
 29 30  1  0
 30 31  1  0
 31 32  1  0
 32 33  1  0
 33 34  1  0
 29 34  1  0
 14 35  1  0
 35 36  2  0
 11 36  1  0
  3 37  1  0
  4 38  1  0
  5 39  1  0
  6 40  1  0
 12 41  1  0
 13 42  1  0
 15 43  1  0
 15 44  1  0
 19 45  1  0
 20 46  1  0
 24 47  1  0
 25 48  1  0
 28 49  1  0
 30 50  1  0
 30 51  1  0
 31 52  1  0
 31 53  1  0
 33 54  1  0
 33 55  1  0
 34 56  1  0
 34 57  1  0
 35 58  1  0
 36 59  1  0
  1 60  1  0
  1 61  1  0
  8 62  1  0
 16 63  1  0
M  END
> <Name>
CHEMBL479278

> <ALogP>
2.715

> <Molecular_Weight>
481.54898

> <Num_H_Acceptors>
8

> <Num_H_Donors>
3

> <Num_RotatableBonds>
7

> <FormalCharge>
0

$$$$
CHEMBL271862
  SciTegic01131515592D

 59 62  0  0  0  0            999 V2000
    3.8990   -0.7562    0.0000 C   0  0
    2.5973   -1.5031    0.0000 O   0  0
    1.2990   -0.7500    0.0000 C   0  0
    1.2990    0.7500    0.0000 C   0  0
    0.0000    1.5000    0.0000 C   0  0
   -1.2990    0.7500    0.0000 C   0  0
   -1.2990   -0.7500    0.0000 C   0  0
    0.0000   -1.5000    0.0000 C   0  0
    0.0031   -3.0008    0.0000 O   0  0
    1.3039   -3.7494    0.0000 C   0  0
   -2.5987    1.5004    0.0000 C   0  0
   -2.6012    3.0004    0.0000 C   0  0
   -3.9015    3.7484    0.0000 C   0  0
   -5.1993    2.9963    0.0000 N   0  0
   -5.1969    1.4963    0.0000 C   0  0
   -6.4939    0.7411    0.0000 N   0  0
   -6.4894   -0.7597    0.0000 C   0  0
   -7.7864   -1.5148    0.0000 C   0  0
   -7.7809   -3.0148    0.0000 C   0  0
   -9.0772   -3.7696    0.0000 C   0  0
  -10.3790   -3.0243    0.0000 C   0  0
  -10.3845   -1.5243    0.0000 C   0  0
   -9.0882   -0.7696    0.0000 C   0  0
  -11.6776   -3.7768    0.0000 C   0  0
  -11.6753   -4.9768    0.0000 O   0  0
  -12.9790   -3.0293    0.0000 N   0  0
  -14.2775   -3.7817    0.0000 C   0  0
  -15.5794   -3.0365    0.0000 C   0  0
  -16.8757   -3.7912    0.0000 C   0  0
  -16.8702   -5.2912    0.0000 C   0  0
  -15.5685   -6.0365    0.0000 C   0  0
  -14.2722   -5.2818    0.0000 C   0  0
  -12.9682   -6.0249    0.0000 N   0  0
   -3.8967    0.7484    0.0000 N   0  0
    4.7640   -1.2579    0.0000 H   0  0
    3.9014    0.2438    0.0000 H   0  0
    4.7662   -0.2581    0.0000 H   0  0
    2.1651    1.2500    0.0000 H   0  0
    0.0000    2.5000    0.0000 H   0  0
   -2.1651   -1.2500    0.0000 H   0  0
    1.3060   -4.7494    0.0000 H   0  0
    2.1691   -3.2479    0.0000 H   0  0
    2.1709   -4.2477    0.0000 H   0  0
   -1.7360    3.5018    0.0000 H   0  0
   -3.9030    4.7484    0.0000 H   0  0
   -5.6217   -1.2568    0.0000 H   0  0
   -5.6250   -0.2569    0.0000 H   0  0
   -6.9131   -3.5117    0.0000 H   0  0
   -9.0736   -4.7696    0.0000 H   0  0
  -11.2523   -1.0275    0.0000 H   0  0
   -9.0918    0.2304    0.0000 H   0  0
  -15.5830   -2.0365    0.0000 H   0  0
  -17.7435   -3.2944    0.0000 H   0  0
  -17.7344   -5.7943    0.0000 H   0  0
  -15.5649   -7.0365    0.0000 H   0  0
   -7.3616    1.2382    0.0000 H   0  0
  -12.9809   -2.0293    0.0000 H   0  0
  -12.1047   -5.5205    0.0000 H   0  0
  -12.9629   -7.0249    0.0000 H   0  0
  1  2  1  0
  2  3  1  0
  3  4  2  0
  4  5  1  0
  5  6  2  0
  6  7  1  0
  7  8  2  0
  3  8  1  0
  8  9  1  0
  9 10  1  0
  6 11  1  0
 11 12  2  0
 12 13  1  0
 13 14  2  0
 14 15  1  0
 15 16  1  0
 16 17  1  0
 17 18  1  0
 18 19  2  0
 19 20  1  0
 20 21  2  0
 21 22  1  0
 22 23  2  0
 18 23  1  0
 21 24  1  0
 24 25  2  0
 24 26  1  0
 26 27  1  0
 27 28  2  0
 28 29  1  0
 29 30  2  0
 30 31  1  0
 31 32  2  0
 27 32  1  0
 32 33  1  0
 15 34  2  0
 11 34  1  0
  1 35  1  0
  1 36  1  0
  1 37  1  0
  4 38  1  0
  5 39  1  0
  7 40  1  0
 10 41  1  0
 10 42  1  0
 10 43  1  0
 12 44  1  0
 13 45  1  0
 17 46  1  0
 17 47  1  0
 19 48  1  0
 20 49  1  0
 22 50  1  0
 23 51  1  0
 28 52  1  0
 29 53  1  0
 30 54  1  0
 31 55  1  0
 16 56  1  0
 26 57  1  0
 33 58  1  0
 33 59  1  0
M  END
> <Name>
CHEMBL271862

> <ALogP>
3.444

> <Molecular_Weight>
455.5084

> <Num_H_Acceptors>
7

> <Num_H_Donors>
3

> <Num_RotatableBonds>
8

> <FormalCharge>
0

$$$$
CHEMBL404332
  SciTegic01131515592D

 56 59  0  0  0  0            999 V2000
    5.5902   -4.6660    0.0000 C   0  0
    4.1211   -4.3589    0.0000 C   0  0
    3.6516   -2.9334    0.0000 C   0  0
    2.1825   -2.6263    0.0000 C   0  0
    1.7138   -1.2033    0.0000 N   0  0
    2.5889    0.0182    0.0000 C   0  0
    1.7138    1.2033    0.0000 N   0  0
    0.2917    0.7475    0.0000 C   0  0
   -1.0028    1.5132    0.0000 C   0  0
   -0.9971    3.0138    0.0000 N   0  0
   -2.2935    3.7700    0.0000 C   0  0
   -2.2878    5.2708    0.0000 C   0  0
   -0.9859    6.0158    0.0000 C   0  0
   -0.9802    7.5158    0.0000 C   0  0
   -2.2764    8.2707    0.0000 C   0  0
   -3.5782    7.5257    0.0000 C   0  0
   -3.5840    6.0257    0.0000 C   0  0
   -2.2737    9.7716    0.0000 C   0  0
   -1.2332   10.3694    0.0000 O   0  0
   -3.5717   10.5251    0.0000 N   0  0
   -3.5690   12.0259    0.0000 C   0  0
   -4.8652   12.7809    0.0000 C   0  0
   -4.8595   14.2809    0.0000 C   0  0
   -3.5577   15.0260    0.0000 C   0  0
   -2.2615   14.2711    0.0000 C   0  0
   -2.2671   12.7711    0.0000 C   0  0
   -0.9718   12.0131    0.0000 N   0  0
   -2.3155    0.7475    0.0000 N   0  0
   -2.3155   -0.7475    0.0000 C   0  0
   -3.3560   -1.3452    0.0000 Cl  0  0
   -1.0028   -1.5132    0.0000 N   0  0
    0.2917   -0.7475    0.0000 C   0  0
    5.9030   -5.6158    0.0000 H   0  0
    6.2566   -3.9203    0.0000 H   0  0
    6.5691   -4.8701    0.0000 H   0  0
    3.4548   -5.1045    0.0000 H   0  0
    3.1422   -4.1548    0.0000 H   0  0
    4.3180   -2.1878    0.0000 H   0  0
    3.3392   -1.9834    0.0000 H   0  0
    1.5162   -3.3719    0.0000 H   0  0
    1.2036   -2.4222    0.0000 H   0  0
    3.5889    0.0254    0.0000 H   0  0
   -3.1616    3.2735    0.0000 H   0  0
   -2.2978    2.7700    0.0000 H   0  0
   -0.1218    5.5125    0.0000 H   0  0
   -0.1123    8.0125    0.0000 H   0  0
   -4.4424    8.0290    0.0000 H   0  0
   -4.4519    5.5290    0.0000 H   0  0
   -5.7331   12.2842    0.0000 H   0  0
   -5.7236   14.7842    0.0000 H   0  0
   -3.5539   16.0260    0.0000 H   0  0
   -1.3936   14.7678    0.0000 H   0  0
   -0.1290    3.5102    0.0000 H   0  0
   -4.4387   10.0269    0.0000 H   0  0
   -0.9769   11.0131    0.0000 H   0  0
   -0.1030   12.5084    0.0000 H   0  0
  1  2  1  0
  2  3  1  0
  3  4  1  0
  4  5  1  0
  5  6  1  0
  6  7  2  0
  7  8  1  0
  8  9  2  0
  9 10  1  0
 10 11  1  0
 11 12  1  0
 12 13  2  0
 13 14  1  0
 14 15  2  0
 15 16  1  0
 16 17  2  0
 12 17  1  0
 15 18  1  0
 18 19  2  0
 18 20  1  0
 20 21  1  0
 21 22  2  0
 22 23  1  0
 23 24  2  0
 24 25  1  0
 25 26  2  0
 21 26  1  0
 26 27  1  0
  9 28  1  0
 28 29  2  0
 29 30  1  0
 29 31  1  0
 31 32  2  0
  5 32  1  0
  8 32  1  0
  1 33  1  0
  1 34  1  0
  1 35  1  0
  2 36  1  0
  2 37  1  0
  3 38  1  0
  3 39  1  0
  4 40  1  0
  4 41  1  0
  6 42  1  0
 11 43  1  0
 11 44  1  0
 13 45  1  0
 14 46  1  0
 16 47  1  0
 17 48  1  0
 22 49  1  0
 23 50  1  0
 24 51  1  0
 25 52  1  0
 10 53  1  0
 20 54  1  0
 27 55  1  0
 27 56  1  0
M  END
> <Name>
CHEMBL404332

> <ALogP>
4.125

> <Molecular_Weight>
449.93596

> <Num_H_Acceptors>
6

> <Num_H_Donors>
3

> <Num_RotatableBonds>
8

> <FormalCharge>
0

$$$$
CHEMBL402363
  SciTegic01131515592D

 74 75  0  0  1  0            999 V2000
    2.7388    4.3768    0.0000 C   0  0
    3.3633    3.0120    0.0000 C   0  0
    4.8574    2.8710    0.0000 C   0  0
    2.5792    1.7803    0.0000 C   0  0  1  0  0  0
    1.4564    2.7750    0.0000 N   0  0
    0.0000    3.1339    0.0000 C   0  0
    0.0000    4.1339    0.0000 O   0  0
   -1.4564    2.7750    0.0000 C   0  0  1  0  0  0
   -2.9165    2.7597    0.0000 C   0  0
   -2.5792    1.7803    0.0000 C   0  0  1  0  0  0
   -2.3881    3.2279    0.0000 C   0  0
   -3.1282    4.5335    0.0000 C   0  0
   -2.3684    5.8278    0.0000 C   0  0
   -0.8676    5.8178    0.0000 C   0  0
   -0.1077    7.1121    0.0000 C   0  0
    1.3930    7.1021    0.0000 C   0  0
    2.0006    8.1370    0.0000 O   0  0
    1.9858    6.0587    0.0000 O   0  5
   -3.1111    0.3777    0.0000 N   0  0
   -2.9303   -1.1113    0.0000 C   0  0
   -3.8653   -1.4659    0.0000 O   0  0
   -2.0782   -2.3458    0.0000 C   0  0  1  0  0  0
   -3.3955   -2.9757    0.0000 C   0  0
   -3.5881   -4.4641    0.0000 C   0  0
   -4.9727   -5.0411    0.0000 C   0  0
   -5.1653   -6.5287    0.0000 C   0  0
   -3.9733   -7.4393    0.0000 C   0  0
   -2.5887   -6.8623    0.0000 C   0  0
   -2.3961   -5.3747    0.0000 C   0  0
   -0.7500   -3.0429    0.0000 N   0  0
    0.7500   -3.0429    0.0000 C   0  0
    0.9893   -4.0138    0.0000 O   0  0
    2.0782   -2.3458    0.0000 C   0  0  1  0  0  0
    1.5462   -3.7056    0.0000 C   0  0
    2.9303   -1.1113    0.0000 N   0  0
    3.1111    0.3778    0.0000 C   0  0
    4.3023    0.5224    0.0000 O   0  0
    3.3177    5.1921    0.0000 H   0  0
    2.3223    5.2859    0.0000 H   0  0
    1.7432    4.4708    0.0000 H   0  0
    3.9426    3.8271    0.0000 H   0  0
    5.4371    3.6858    0.0000 H   0  0
    5.2735    1.9616    0.0000 H   0  0
    5.8529    2.7765    0.0000 H   0  0
    3.4598    1.3064    0.0000 H   0  0
   -0.8798    3.5920    0.0000 H   0  0
   -3.4514    1.9148    0.0000 H   0  0
   -3.9157    2.8003    0.0000 H   0  0
   -3.3811    3.6453    0.0000 H   0  0
   -3.4598    1.3064    0.0000 H   0  0
   -1.4458    3.5627    0.0000 H   0  0
   -2.2068    4.2113    0.0000 H   0  0
   -4.1282    4.5411    0.0000 H   0  0
   -2.8623    6.6972    0.0000 H   0  0
   -0.3736    4.9483    0.0000 H   0  0
   -1.3735    4.9552    0.0000 H   0  0
   -0.6017    7.9815    0.0000 H   0  0
    0.3981    7.9747    0.0000 H   0  0
   -1.7139   -3.2771    0.0000 H   0  0
   -4.3184   -3.3605    0.0000 H   0  0
   -4.1903   -2.3689    0.0000 H   0  0
   -5.7674   -4.4341    0.0000 H   0  0
   -6.0883   -6.9134    0.0000 H   0  0
   -4.1016   -8.4310    0.0000 H   0  0
   -1.7940   -7.4693    0.0000 H   0  0
   -1.4731   -4.9900    0.0000 H   0  0
    3.0466   -2.0964    0.0000 H   0  0
    0.5665   -3.9061    0.0000 H   0  0
    1.2299   -4.6542    0.0000 H   0  0
    2.2095   -4.4540    0.0000 H   0  0
    1.9211    3.6604    0.0000 H   0  0
   -4.1038    0.4983    0.0000 H   0  0
   -0.9893   -4.0138    0.0000 H   0  0
    3.8653   -1.4659    0.0000 H   0  0
  1  2  1  0
  2  3  1  0
  4  2  1  0
  4  5  1  0
  5  6  1  0
  6  7  2  0
  6  8  1  0
  8  9  1  0
  8 10  1  0
 10 11  1  0
 11 12  1  0
 12 13  2  0
 13 14  1  0
 14 15  1  0
 15 16  1  0
 16 17  2  0
 16 18  1  0
 10 19  1  0
 19 20  1  0
 20 21  2  0
 20 22  1  0
 22 23  1  0
 23 24  1  0
 24 25  2  0
 25 26  1  0
 26 27  2  0
 27 28  1  0
 28 29  2  0
 24 29  1  0
 22 30  1  0
 30 31  1  0
 31 32  2  0
 31 33  1  0
 33 34  1  0
 33 35  1  0
 35 36  1  0
  4 36  1  0
 36 37  2  0
  1 38  1  0
  1 39  1  0
  1 40  1  0
  2 41  1  0
  3 42  1  0
  3 43  1  0
  3 44  1  0
  4 45  1  1
  8 46  1  1
  9 47  1  0
  9 48  1  0
  9 49  1  0
 10 50  1  1
 11 51  1  0
 11 52  1  0
 12 53  1  0
 13 54  1  0
 14 55  1  0
 14 56  1  0
 15 57  1  0
 15 58  1  0
 22 59  1  1
 23 60  1  0
 23 61  1  0
 25 62  1  0
 26 63  1  0
 27 64  1  0
 28 65  1  0
 29 66  1  0
 33 67  1  1
 34 68  1  0
 34 69  1  0
 34 70  1  0
  5 71  1  0
 19 72  1  0
 30 73  1  0
 35 74  1  0
M  CHG  1  18  -1
M  END
> <Name>
CHEMBL402363

> <ALogP>
0.33

> <Molecular_Weight>
513.60588

> <Num_H_Acceptors>
6

> <Num_H_Donors>
4

> <Num_RotatableBonds>
8

> <FormalCharge>
-1

$$$$
CHEMBL1957458
  SciTegic01131515592D

 60 63  0  0  0  0            999 V2000
   -6.4698   12.7306    0.0000 C   0  0
   -5.1715   11.9777    0.0000 C   0  0
   -5.1734   10.4769    0.0000 N   0  0
   -3.8753    9.7253    0.0000 C   0  0
   -3.8772    8.2253    0.0000 C   0  0
   -5.1772    7.4769    0.0000 N   0  0
   -5.1822    5.9761    0.0000 C   0  0
   -4.1447    5.3730    0.0000 O   0  0
   -6.4839    5.2292    0.0000 N   0  0
   -6.4889    3.7284    0.0000 C   0  0
   -7.7907    2.9814    0.0000 C   0  0
   -9.0877    3.7349    0.0000 C   0  0
  -10.3888    2.9884    0.0000 C   0  0
  -10.3928    1.4884    0.0000 C   0  0
   -9.0958    0.7350    0.0000 C   0  0
   -7.7947    1.4815    0.0000 C   0  0
  -11.6930    0.7389    0.0000 C   0  0
  -12.7317    1.3398    0.0000 O   0  0
  -11.6949   -0.7620    0.0000 N   0  0
  -12.9952   -1.5116    0.0000 C   0  0
  -14.2953   -0.7634    0.0000 C   0  0
  -15.5933   -1.5153    0.0000 C   0  0
  -15.5912   -3.0153    0.0000 C   0  0
  -14.2911   -3.7634    0.0000 C   0  0
  -12.9931   -3.0116    0.0000 C   0  0
  -11.6908   -3.7576    0.0000 N   0  0
  -16.8940   -0.7667    0.0000 C   0  0
  -17.0364    0.7137    0.0000 C   0  0
  -18.5045    1.0212    0.0000 C   0  0
  -19.2506   -0.2801    0.0000 C   0  0
  -18.2436   -1.3918    0.0000 S   0  0
   -6.4752    8.2286    0.0000 C   0  0
   -7.5152    7.6299    0.0000 O   0  0
   -6.4733    9.7286    0.0000 C   0  0
   -7.5118   10.3299    0.0000 O   0  0
   -6.4685   13.7306    0.0000 H   0  0
   -7.3366   12.2320    0.0000 H   0  0
   -7.3351   13.2318    0.0000 H   0  0
   -4.3046   12.4764    0.0000 H   0  0
   -4.3061   11.4765    0.0000 H   0  0
   -3.0219    9.2039    0.0000 H   0  0
   -3.8975   10.7250    0.0000 H   0  0
   -3.0225    8.7445    0.0000 H   0  0
   -3.9019    7.2256    0.0000 H   0  0
   -5.6213    4.2256    0.0000 H   0  0
   -5.6244    3.2258    0.0000 H   0  0
   -9.0850    4.7349    0.0000 H   0  0
  -11.2534    3.4908    0.0000 H   0  0
   -9.0985   -0.2650    0.0000 H   0  0
   -6.9300    0.9791    0.0000 H   0  0
  -14.2967    0.2366    0.0000 H   0  0
  -16.4565   -3.5165    0.0000 H   0  0
  -14.2897   -4.7634    0.0000 H   0  0
  -16.2912    1.3807    0.0000 H   0  0
  -18.9140    1.9335    0.0000 H   0  0
  -20.2448   -0.3876    0.0000 H   0  0
   -7.3484    5.7318    0.0000 H   0  0
  -10.8294   -1.2628    0.0000 H   0  0
  -10.8262   -3.2552    0.0000 H   0  0
  -11.6877   -4.7576    0.0000 H   0  0
  1  2  1  0
  2  3  1  0
  3  4  1  0
  4  5  1  0
  5  6  1  0
  6  7  1  0
  7  8  2  0
  7  9  1  0
  9 10  1  0
 10 11  1  0
 11 12  2  0
 12 13  1  0
 13 14  2  0
 14 15  1  0
 15 16  2  0
 11 16  1  0
 14 17  1  0
 17 18  2  0
 17 19  1  0
 19 20  1  0
 20 21  2  0
 21 22  1  0
 22 23  2  0
 23 24  1  0
 24 25  2  0
 20 25  1  0
 25 26  1  0
 22 27  1  0
 27 28  2  0
 28 29  1  0
 29 30  2  0
 30 31  1  0
 27 31  1  0
  6 32  1  0
 32 33  2  0
 32 34  1  0
  3 34  1  0
 34 35  2  0
  1 36  1  0
  1 37  1  0
  1 38  1  0
  2 39  1  0
  2 40  1  0
  4 41  1  0
  4 42  1  0
  5 43  1  0
  5 44  1  0
 10 45  1  0
 10 46  1  0
 12 47  1  0
 13 48  1  0
 15 49  1  0
 16 50  1  0
 21 51  1  0
 23 52  1  0
 24 53  1  0
 28 54  1  0
 29 55  1  0
 30 56  1  0
  9 57  1  0
 19 58  1  0
 26 59  1  0
 26 60  1  0
M  END
> <Name>
CHEMBL1957458

> <ALogP>
2.18

> <Molecular_Weight>
491.5621

> <Num_H_Acceptors>
5

> <Num_H_Donors>
3

> <Num_RotatableBonds>
6

> <FormalCharge>
0

$$$$
CHEMBL99394
  SciTegic01131515592D

 34 34  0  0  0  0            999 V2000
    2.0846  -13.9613    0.0000 O   0  0
    2.6971  -12.5911    0.0000 N   0  0
    1.8174  -11.3750    0.0000 C   0  0
    0.6238  -11.4984    0.0000 O   0  0
    2.4298  -10.0049    0.0000 C   0  0
    1.5502   -8.7888    0.0000 C   0  0
    2.1626   -7.4186    0.0000 C   0  0
    1.2830   -6.2026    0.0000 C   0  0
    1.8954   -4.8324    0.0000 C   0  0
    1.0157   -3.6164    0.0000 C   0  0
    1.6281   -2.2462    0.0000 C   0  0
    2.8218   -2.1229    0.0000 O   0  0
    0.7500   -1.0323    0.0000 C   0  0
    1.2135    0.3943    0.0000 C   0  0
    0.0000    1.2760    0.0000 C   0  0
   -1.2135    0.3943    0.0000 C   0  0
   -0.7500   -1.0323    0.0000 S   0  0
    3.4245   -9.9021    0.0000 H   0  0
    3.0163  -10.8148    0.0000 H   0  0
    0.5555   -8.8916    0.0000 H   0  0
    0.9637   -7.9789    0.0000 H   0  0
    3.1573   -7.3159    0.0000 H   0  0
    2.5711   -6.5059    0.0000 H   0  0
    0.2882   -6.3054    0.0000 H   0  0
    0.6965   -5.3927    0.0000 H   0  0
    2.8901   -4.7297    0.0000 H   0  0
    2.3039   -3.9197    0.0000 H   0  0
    0.0210   -3.7192    0.0000 H   0  0
    0.4292   -2.8065    0.0000 H   0  0
    2.1646    0.7033    0.0000 H   0  0
    0.0000    2.2760    0.0000 H   0  0
   -2.1646    0.7033    0.0000 H   0  0
    2.6707  -14.7715    0.0000 H   0  0
    3.6918  -12.4883    0.0000 H   0  0
  1  2  1  0
  2  3  1  0
  3  4  2  0
  3  5  1  0
  5  6  1  0
  6  7  1  0
  7  8  1  0
  8  9  1  0
  9 10  1  0
 10 11  1  0
 11 12  2  0
 11 13  1  0
 13 14  2  0
 14 15  1  0
 15 16  2  0
 16 17  1  0
 13 17  1  0
  5 18  1  0
  5 19  1  0
  6 20  1  0
  6 21  1  0
  7 22  1  0
  7 23  1  0
  8 24  1  0
  8 25  1  0
  9 26  1  0
  9 27  1  0
 10 28  1  0
 10 29  1  0
 14 30  1  0
 15 31  1  0
 16 32  1  0
  1 33  1  0
  2 34  1  0
M  END
> <Name>
CHEMBL99394

> <ALogP>
2.578

> <Molecular_Weight>
255.33327

> <Num_H_Acceptors>
3

> <Num_H_Donors>
2

> <Num_RotatableBonds>
8

> <FormalCharge>
0

$$$$
CHEMBL235263
  SciTegic01131515592D

 57 58  0  0  1  0            999 V2000
  -11.7059    3.0161    0.0000 C   0  0
  -10.4047    3.7641    0.0000 C   0  0
  -11.7275    4.5330    0.0000 C   0  0
  -10.4024    5.2649    0.0000 C   0  0
   -9.1059    3.0121    0.0000 O   0  0
   -7.8048    3.7601    0.0000 C   0  0
   -7.8029    4.9601    0.0000 O   0  0
   -6.5059    3.0081    0.0000 N   0  0
   -5.2049    3.7560    0.0000 C   0  0  1  0  0  0
   -5.2025    5.2568    0.0000 C   0  0
   -6.5006    6.0101    0.0000 C   0  0
   -6.4983    7.5109    0.0000 C   0  0
   -7.7964    8.2641    0.0000 C   0  0
   -7.7941    9.7650    0.0000 C   0  0
   -9.0922   10.5182    0.0000 S   0  0
   -3.9067    3.0027    0.0000 C   0  0
   -2.8664    3.6008    0.0000 O   0  0
   -3.9091    1.5019    0.0000 N   0  0
   -2.6111    0.7486    0.0000 C   0  0
   -2.6111   -0.7486    0.0000 C   0  0
   -1.2964   -1.4973    0.0000 N   0  0
    0.0000   -0.7486    0.0000 C   0  0
    1.2964   -1.4973    0.0000 C   0  0
    2.5929   -0.7486    0.0000 C   0  0
    2.5929    0.7486    0.0000 C   0  0
    1.2964    1.4973    0.0000 C   0  0
    0.0000    0.7486    0.0000 C   0  0
   -1.2964    1.4973    0.0000 C   0  0
  -12.5713    3.5172    0.0000 H   0  0
  -12.5726    2.5173    0.0000 H   0  0
  -11.7074    2.0161    0.0000 H   0  0
  -11.7251    5.5330    0.0000 H   0  0
  -12.5922    5.0352    0.0000 H   0  0
  -12.5948    4.0353    0.0000 H   0  0
  -11.2673    5.7668    0.0000 H   0  0
   -9.5354    5.7632    0.0000 H   0  0
  -10.4004    6.2649    0.0000 H   0  0
   -5.2069    2.7560    0.0000 H   0  0
   -4.3373    4.7553    0.0000 H   0  0
   -4.3356    5.7552    0.0000 H   0  0
   -6.5027    5.0101    0.0000 H   0  0
   -7.3676    5.5117    0.0000 H   0  0
   -5.6331    7.0094    0.0000 H   0  0
   -5.6313    8.0093    0.0000 H   0  0
   -7.7984    7.2641    0.0000 H   0  0
   -8.6634    7.7658    0.0000 H   0  0
   -7.7920   10.7650    0.0000 H   0  0
   -6.9271   10.2633    0.0000 H   0  0
   -3.4756   -1.2512    0.0000 H   0  0
    1.2964   -2.4973    0.0000 H   0  0
    3.4589   -1.2486    0.0000 H   0  0
    3.4589    1.2486    0.0000 H   0  0
    1.2964    2.4973    0.0000 H   0  0
   -1.2934    2.4973    0.0000 H   0  0
   -6.5075    2.0081    0.0000 H   0  0
   -9.0906   11.5182    0.0000 H   0  0
   -4.7760    1.0035    0.0000 H   0  0
  1  2  1  0
  2  3  1  0
  2  4  1  0
  2  5  1  0
  5  6  1  0
  6  7  2  0
  6  8  1  0
  9  8  1  0
  9 10  1  0
 10 11  1  0
 11 12  1  0
 12 13  1  0
 13 14  1  0
 14 15  1  0
  9 16  1  0
 16 17  2  0
 16 18  1  0
 18 19  1  0
 19 20  2  0
 20 21  1  0
 21 22  2  0
 22 23  1  0
 23 24  2  0
 24 25  1  0
 25 26  2  0
 26 27  1  0
 22 27  1  0
 27 28  2  0
 19 28  1  0
  1 29  1  0
  1 30  1  0
  1 31  1  0
  3 32  1  0
  3 33  1  0
  3 34  1  0
  4 35  1  0
  4 36  1  0
  4 37  1  0
  9 38  1  6
 10 39  1  0
 10 40  1  0
 11 41  1  0
 11 42  1  0
 12 43  1  0
 12 44  1  0
 13 45  1  0
 13 46  1  0
 14 47  1  0
 14 48  1  0
 20 49  1  0
 23 50  1  0
 24 51  1  0
 25 52  1  0
 26 53  1  0
 28 54  1  0
  8 55  1  0
 15 56  1  0
 18 57  1  0
M  END
> <Name>
CHEMBL235263

> <ALogP>
3.893

> <Molecular_Weight>
403.53826

> <Num_H_Acceptors>
5

> <Num_H_Donors>
3

> <Num_RotatableBonds>
10

> <FormalCharge>
0

$$$$
CHEMBL272403
  SciTegic01131515592D

 57 59  0  0  1  0            999 V2000
    9.0931    3.7487    0.0000 C   0  0
    7.7935    2.9979    0.0000 C   0  0
    6.7543    3.5979    0.0000 O   0  0
    7.7930    1.4971    0.0000 C   0  0
    6.4935    0.7463    0.0000 C   0  0
    6.4930   -0.7546    0.0000 C   0  0
    5.1935   -1.5053    0.0000 C   0  0
    5.1930   -3.0062    0.0000 C   0  0
    3.8934   -3.7570    0.0000 C   0  0  2  0  0  0
    3.8912   -5.2578    0.0000 N   0  0
    5.1894   -6.0109    0.0000 C   0  0
    5.3272   -7.4918    0.0000 C   0  0
    6.7944   -7.8037    0.0000 N   0  0
    7.5445   -6.5047    0.0000 C   0  0
    6.5408   -5.3899    0.0000 S   0  0
    2.5951   -3.0039    0.0000 C   0  0
    1.5549   -3.6021    0.0000 O   0  0
    2.5973   -1.5031    0.0000 N   0  0
    1.2990   -0.7500    0.0000 C   0  0
    1.2990    0.7500    0.0000 C   0  0
    0.0000    1.5000    0.0000 C   0  0
   -1.2990    0.7500    0.0000 C   0  0
   -1.2990   -0.7500    0.0000 C   0  0
    0.0000   -1.5000    0.0000 C   0  0
   -2.5987   -1.5004    0.0000 C   0  0
   -3.8991   -0.7525    0.0000 C   0  0
   -5.1969   -1.5046    0.0000 C   0  0
   -5.1945   -3.0046    0.0000 C   0  0
   -3.8943   -3.7525    0.0000 C   0  0
   -2.5964   -3.0004    0.0000 C   0  0
    9.0934    4.7487    0.0000 H   0  0
    9.9592    4.2485    0.0000 H   0  0
    9.9591    3.2487    0.0000 H   0  0
    8.6592    1.9969    0.0000 H   0  0
    8.6591    0.9970    0.0000 H   0  0
    5.6274    0.2464    0.0000 H   0  0
    5.6275    1.2463    0.0000 H   0  0
    6.4931   -1.7546    0.0000 H   0  0
    7.3590   -1.2546    0.0000 H   0  0
    4.3273   -2.0052    0.0000 H   0  0
    4.3274   -1.0053    0.0000 H   0  0
    5.1931   -4.0062    0.0000 H   0  0
    6.0590   -3.5062    0.0000 H   0  0
    3.0265   -4.2555    0.0000 H   0  0
    4.5801   -8.1564    0.0000 H   0  0
    8.5390   -6.4002    0.0000 H   0  0
    2.1651    1.2500    0.0000 H   0  0
    0.0000    2.5000    0.0000 H   0  0
   -2.1651    1.2500    0.0000 H   0  0
    0.0000   -2.5000    0.0000 H   0  0
   -3.9007    0.2475    0.0000 H   0  0
   -6.0637   -1.0060    0.0000 H   0  0
   -6.0597   -3.5059    0.0000 H   0  0
   -3.8927   -4.7525    0.0000 H   0  0
   -1.7296   -3.4991    0.0000 H   0  0
    3.0243   -5.7563    0.0000 H   0  0
    3.4642   -1.0046    0.0000 H   0  0
  1  2  1  0
  2  3  2  0
  2  4  1  0
  4  5  1  0
  5  6  1  0
  6  7  1  0
  7  8  1  0
  8  9  1  0
  9 10  1  0
 10 11  1  0
 11 12  2  0
 12 13  1  0
 13 14  2  0
 14 15  1  0
 11 15  1  0
  9 16  1  0
 16 17  2  0
 16 18  1  0
 18 19  1  0
 19 20  2  0
 20 21  1  0
 21 22  2  0
 22 23  1  0
 23 24  2  0
 19 24  1  0
 23 25  1  0
 25 26  2  0
 26 27  1  0
 27 28  2  0
 28 29  1  0
 29 30  2  0
 25 30  1  0
  1 31  1  0
  1 32  1  0
  1 33  1  0
  4 34  1  0
  4 35  1  0
  5 36  1  0
  5 37  1  0
  6 38  1  0
  6 39  1  0
  7 40  1  0
  7 41  1  0
  8 42  1  0
  8 43  1  0
  9 44  1  1
 12 45  1  0
 14 46  1  0
 20 47  1  0
 21 48  1  0
 22 49  1  0
 24 50  1  0
 26 51  1  0
 27 52  1  0
 28 53  1  0
 29 54  1  0
 30 55  1  0
 10 56  1  0
 18 57  1  0
M  END
> <Name>
CHEMBL272403

> <ALogP>
4.028

> <Molecular_Weight>
421.55508

> <Num_H_Acceptors>
4

> <Num_H_Donors>
2

> <Num_RotatableBonds>
11

> <FormalCharge>
0

$$$$
CHEMBL241337
  SciTegic01131515592D

 48 51  0  0  0  0            999 V2000
  -10.4126   -3.7373    0.0000 N   0  0
  -11.7133   -2.9885    0.0000 C   0  0
  -13.0129   -3.7374    0.0000 C   0  0
  -14.3114   -2.9864    0.0000 C   0  0
  -14.3102   -1.4864    0.0000 C   0  0
  -13.0105   -0.7374    0.0000 C   0  0
  -11.7120   -1.4884    0.0000 C   0  0
  -10.4101   -0.7417    0.0000 N   0  0
   -9.1120   -1.4949    0.0000 C   0  0
   -9.1151   -2.6949    0.0000 O   0  0
   -7.8102   -0.7482    0.0000 C   0  0
   -6.5117   -1.4992    0.0000 C   0  0
   -5.2121   -0.7502    0.0000 C   0  0
   -5.2109    0.7498    0.0000 C   0  0
   -3.9106    1.4992    0.0000 C   0  0
   -2.6111    0.7486    0.0000 N   0  0
   -2.6111   -0.7486    0.0000 C   0  0
   -3.6486   -1.3517    0.0000 O   0  0
   -1.2964   -1.4973    0.0000 N   0  3
    0.0000   -0.7486    0.0000 C   0  0
    1.2964   -1.4973    0.0000 C   0  0
    2.5929   -0.7486    0.0000 C   0  0
    2.5929    0.7486    0.0000 C   0  0
    1.2964    1.4973    0.0000 C   0  0
    0.0000    0.7486    0.0000 C   0  0
   -1.2964    1.4973    0.0000 C   0  0
   -1.2928    2.6973    0.0000 O   0  0
   -6.5094    1.5008    0.0000 C   0  0
   -7.8090    0.7518    0.0000 C   0  0
  -13.0137   -4.7374    0.0000 H   0  0
  -15.1778   -3.4857    0.0000 H   0  0
  -15.1758   -0.9857    0.0000 H   0  0
  -13.0098    0.2626    0.0000 H   0  0
   -6.5125   -2.4992    0.0000 H   0  0
   -4.3464   -1.2508    0.0000 H   0  0
   -3.9102    2.4992    0.0000 H   0  0
   -4.7763    1.9998    0.0000 H   0  0
    1.2964   -2.4973    0.0000 H   0  0
    3.4589   -1.2486    0.0000 H   0  0
    3.4589    1.2486    0.0000 H   0  0
    1.2964    2.4973    0.0000 H   0  0
   -6.5086    2.5008    0.0000 H   0  0
   -8.6747    1.2525    0.0000 H   0  0
   -9.5469   -3.2368    0.0000 H   0  0
  -10.4117   -4.7373    0.0000 H   0  0
  -10.4076    0.2583    0.0000 H   0  0
   -0.4173   -1.9738    0.0000 H   0  0
   -2.1726   -1.9792    0.0000 H   0  0
  1  2  1  0
  2  3  2  0
  3  4  1  0
  4  5  2  0
  5  6  1  0
  6  7  2  0
  2  7  1  0
  7  8  1  0
  8  9  1  0
  9 10  2  0
  9 11  1  0
 11 12  2  0
 12 13  1  0
 13 14  2  0
 14 15  1  0
 15 16  1  0
 16 17  1  0
 17 18  2  0
 17 19  1  0
 19 20  1  0
 20 21  2  0
 21 22  1  0
 22 23  2  0
 23 24  1  0
 24 25  2  0
 20 25  1  0
 25 26  1  0
 16 26  1  0
 26 27  2  0
 14 28  1  0
 28 29  2  0
 11 29  1  0
  3 30  1  0
  4 31  1  0
  5 32  1  0
  6 33  1  0
 12 34  1  0
 13 35  1  0
 15 36  1  0
 15 37  1  0
 21 38  1  0
 22 39  1  0
 23 40  1  0
 24 41  1  0
 28 42  1  0
 29 43  1  0
  1 44  1  0
  1 45  1  0
  8 46  1  0
 19 47  1  0
 19 48  1  0
M  CHG  1  19   1
M  END
> <Name>
CHEMBL241337

> <ALogP>
2.411

> <Molecular_Weight>
387.41126

> <Num_H_Acceptors>
4

> <Num_H_Donors>
3

> <Num_RotatableBonds>
4

> <FormalCharge>
1

$$$$
CHEMBL2177587
  SciTegic01131515592D

 61 64  0  0  1  0            999 V2000
    6.4082   -1.1885    0.0000 C   0  0
    4.9183   -1.0302    0.0000 N   0  3
    4.1697    0.2696    0.0000 C   0  0
    2.7022   -0.0406    0.0000 C   0  0  1  0  0  0
    2.5987   -1.5006    0.0000 C   0  0  2  0  0  0
    3.9134   -2.1439    0.0000 C   0  0
    1.2990   -0.7500    0.0000 C   0  0
    1.2990    0.7500    0.0000 C   0  0
    0.0000    1.5000    0.0000 C   0  0
   -1.2990    0.7500    0.0000 C   0  0
   -2.6003    1.4977    0.0000 C   0  0
   -3.8990    0.7455    0.0000 C   0  0
   -5.2003    1.4932    0.0000 C   0  0
   -5.2024    2.6932    0.0000 O   0  0
   -6.4990    0.7409    0.0000 N   0  0
   -7.8003    1.4887    0.0000 C   0  0
   -9.0994    0.7387    0.0000 C   0  0
  -10.3984    1.4886    0.0000 C   0  0
  -10.3985    2.9886    0.0000 C   0  0
   -9.0995    3.7387    0.0000 C   0  0
   -7.8004    2.9887    0.0000 C   0  0
   -6.4992    3.7365    0.0000 N   0  0
   -1.2990   -0.7500    0.0000 C   0  0
    0.0000   -1.5000    0.0000 C   0  0
    3.0090    1.4160    0.0000 C   0  0
    2.1041    2.2041    0.0000 O   0  0
    4.4284    1.9038    0.0000 N   0  0
    4.7166    3.3767    0.0000 C   0  0
    6.1344    3.8663    0.0000 C   0  0
    6.4195    5.3389    0.0000 C   0  0
    5.2866    6.3221    0.0000 C   0  0
    5.5147    7.5003    0.0000 Cl  0  0
    3.8687    5.8326    0.0000 C   0  0
    3.5837    4.3600    0.0000 C   0  0
    6.9973   -0.3805    0.0000 H   0  0
    6.8136   -2.1026    0.0000 H   0  0
    7.4025   -1.2946    0.0000 H   0  0
    3.5708    1.0704    0.0000 H   0  0
    5.1658    0.3583    0.0000 H   0  0
    1.7611   -0.3789    0.0000 H   0  0
    2.5966   -2.5006    0.0000 H   0  0
    3.1490   -2.7887    0.0000 H   0  0
    4.8628   -2.4578    0.0000 H   0  0
    2.1651    1.2500    0.0000 H   0  0
    0.0000    2.5000    0.0000 H   0  0
   -2.6021    2.4977    0.0000 H   0  0
   -3.8973   -0.2545    0.0000 H   0  0
   -9.0994   -0.2613    0.0000 H   0  0
  -11.2645    0.9886    0.0000 H   0  0
  -11.2645    3.4886    0.0000 H   0  0
   -9.0995    4.7387    0.0000 H   0  0
   -2.1651   -1.2500    0.0000 H   0  0
    0.0000   -2.5000    0.0000 H   0  0
    6.8897    3.2108    0.0000 H   0  0
    7.3647    5.6653    0.0000 H   0  0
    3.1135    6.4881    0.0000 H   0  0
    2.6384    4.0337    0.0000 H   0  0
   -6.4973   -0.2591    0.0000 H   0  0
   -5.6338    3.2354    0.0000 H   0  0
   -6.4975    4.7365    0.0000 H   0  0
    5.1825    1.2470    0.0000 H   0  0
  1  2  1  0
  2  3  1  0
  3  4  1  0
  4  5  1  0
  5  6  1  0
  2  6  1  0
  5  7  1  0
  7  8  2  0
  8  9  1  0
  9 10  2  0
 10 11  1  0
 11 12  2  0
 12 13  1  0
 13 14  2  0
 13 15  1  0
 15 16  1  0
 16 17  2  0
 17 18  1  0
 18 19  2  0
 19 20  1  0
 20 21  2  0
 16 21  1  0
 21 22  1  0
 10 23  1  0
 23 24  2  0
  7 24  1  0
  4 25  1  0
 25 26  2  0
 25 27  1  0
 27 28  1  0
 28 29  2  0
 29 30  1  0
 30 31  2  0
 31 32  1  0
 31 33  1  0
 33 34  2  0
 28 34  1  0
  1 35  1  0
  1 36  1  0
  1 37  1  0
  3 38  1  0
  3 39  1  0
  4 40  1  6
  5 41  1  1
  6 42  1  0
  6 43  1  0
  8 44  1  0
  9 45  1  0
 11 46  1  0
 12 47  1  0
 17 48  1  0
 18 49  1  0
 19 50  1  0
 20 51  1  0
 23 52  1  0
 24 53  1  0
 29 54  1  0
 30 55  1  0
 33 56  1  0
 34 57  1  0
 15 58  1  0
 22 59  1  0
 22 60  1  0
 27 61  1  0
M  CHG  1   2   1
M  END
> <Name>
CHEMBL2177587

> <ALogP>
2.216

> <Molecular_Weight>
475.98982

> <Num_H_Acceptors>
3

> <Num_H_Donors>
4

> <Num_RotatableBonds>
6

> <FormalCharge>
1

$$$$
CHEMBL1957463
  SciTegic01131515592D

 63 67  0  0  0  0            999 V2000
  -12.6857   -3.8090    0.0000 N   0  0
  -13.9916   -3.0692    0.0000 C   0  0
  -15.2860   -3.8271    0.0000 C   0  0
  -16.5896   -3.0851    0.0000 C   0  0
  -16.5988   -1.5851    0.0000 C   0  0
  -15.3043   -0.8271    0.0000 C   0  0
  -14.0007   -1.5691    0.0000 C   0  0
  -12.7040   -0.8134    0.0000 N   0  0
  -12.7092    0.6874    0.0000 C   0  0
  -13.7507    1.2835    0.0000 O   0  0
  -11.4125    1.4431    0.0000 C   0  0
  -11.4155    2.9431    0.0000 C   0  0
  -10.1180    3.6958    0.0000 C   0  0
   -8.8175    2.9484    0.0000 C   0  0
   -7.5192    3.7015    0.0000 C   0  0
   -7.5213    5.2023    0.0000 N   0  3
   -6.2239    5.9568    0.0000 C   0  0
   -4.9213    5.2112    0.0000 C   0  0
   -3.6240    5.9657    0.0000 O   0  0
   -8.8216    5.9517    0.0000 C   0  0
   -8.8236    7.4525    0.0000 C   0  0
   -7.5249    8.1930    0.0000 C   0  0
   -7.5099    9.7127    0.0000 C   0  0
   -8.8162   10.4579    0.0000 C   0  0
   -9.1247   11.9190    0.0000 O   0  0
  -10.6193   12.0742    0.0000 C   0  0
  -11.2153   10.7270    0.0000 O   0  0
  -10.1150    9.7174    0.0000 C   0  0
  -10.1390    8.2136    0.0000 C   0  0
   -8.8144    1.4484    0.0000 C   0  0
  -10.1119    0.6958    0.0000 C   0  0
  -17.9030   -0.8427    0.0000 C   0  0
  -19.2516   -1.4698    0.0000 C   0  0
  -20.2603   -0.3597    0.0000 C   0  0
  -19.5162    0.9428    0.0000 C   0  0
  -18.0476    0.6376    0.0000 S   0  0
  -15.2799   -4.8271    0.0000 H   0  0
  -17.4525   -3.5903    0.0000 H   0  0
  -15.3105    0.1728    0.0000 H   0  0
  -12.2826    3.4414    0.0000 H   0  0
  -10.1200    4.6958    0.0000 H   0  0
   -6.6540    4.2028    0.0000 H   0  0
   -6.6524    3.2029    0.0000 H   0  0
   -7.0916    6.4539    0.0000 H   0  0
   -6.2274    6.9568    0.0000 H   0  0
   -4.0537    4.7141    0.0000 H   0  0
   -4.9179    4.2113    0.0000 H   0  0
   -8.8207    4.9517    0.0000 H   0  0
   -9.6871    5.4508    0.0000 H   0  0
   -6.6627    7.6864    0.0000 H   0  0
   -6.6427   10.2106    0.0000 H   0  0
  -11.6192   12.0575    0.0000 H   0  0
  -10.1081   12.9337    0.0000 H   0  0
  -11.0092    7.7209    0.0000 H   0  0
   -7.9474    0.9502    0.0000 H   0  0
  -10.1099   -0.3042    0.0000 H   0  0
  -19.4493   -2.4501    0.0000 H   0  0
  -21.2544   -0.4687    0.0000 H   0  0
  -19.9271    1.8545    0.0000 H   0  0
  -11.8235   -3.3025    0.0000 H   0  0
  -12.6779   -4.8089    0.0000 H   0  0
  -11.8361   -1.3101    0.0000 H   0  0
   -2.7560    5.4690    0.0000 H   0  0
  1  2  1  0
  2  3  2  0
  3  4  1  0
  4  5  2  0
  5  6  1  0
  6  7  2  0
  2  7  1  0
  7  8  1  0
  8  9  1  0
  9 10  2  0
  9 11  1  0
 11 12  2  0
 12 13  1  0
 13 14  2  0
 14 15  1  0
 15 16  1  0
 16 17  1  0
 17 18  1  0
 18 19  1  0
 16 20  1  0
 20 21  1  0
 21 22  2  0
 22 23  1  0
 23 24  2  0
 24 25  1  0
 25 26  1  0
 26 27  1  0
 27 28  1  0
 24 28  1  0
 28 29  2  0
 21 29  1  0
 14 30  1  0
 30 31  2  0
 11 31  1  0
  5 32  1  0
 32 33  2  0
 33 34  1  0
 34 35  2  0
 35 36  1  0
 32 36  1  0
  3 37  1  0
  4 38  1  0
  6 39  1  0
 12 40  1  0
 13 41  1  0
 15 42  1  0
 15 43  1  0
 17 44  1  0
 17 45  1  0
 18 46  1  0
 18 47  1  0
 20 48  1  0
 20 49  1  0
 22 50  1  0
 23 51  1  0
 26 52  1  0
 26 53  1  0
 29 54  1  0
 30 55  1  0
 31 56  1  0
 33 57  1  0
 34 58  1  0
 35 59  1  0
  1 60  1  0
  1 61  1  0
  8 62  1  0
 19 63  1  0
M  CHG  1  16   1
M  END
> <Name>
CHEMBL1957463

> <ALogP>
2.665

> <Molecular_Weight>
502.60462

> <Num_H_Acceptors>
5

> <Num_H_Donors>
4

> <Num_RotatableBonds>
9

> <FormalCharge>
1

$$$$
CHEMBL2347007
  SciTegic01131515592D

 73 74  0  0  1  0            999 V2000
   -0.9332    6.9105    0.0000 C   0  0
   -2.3971    6.5796    0.0000 C   0  0
   -2.8433    5.1467    0.0000 C   0  0
   -4.3075    4.8171    0.0000 C   0  0
   -3.8822    6.2699    0.0000 C   0  0
   -1.8262    4.0431    0.0000 C   0  0
   -0.6555    4.3066    0.0000 O   0  0
   -2.2725    2.6101    0.0000 O   0  0
   -1.2964    1.4973    0.0000 C   0  0  1  0  0  0
   -2.6111    0.7486    0.0000 C   0  0
   -2.6111   -0.7486    0.0000 C   0  0  1  0  0  0
   -2.5706   -2.2287    0.0000 C   0  0
   -1.2964   -1.4973    0.0000 C   0  0
    0.0000   -0.7486    0.0000 C   0  0
    1.2964   -1.4973    0.0000 C   0  0
    2.5929   -0.7486    0.0000 C   0  0
    2.5929    0.7486    0.0000 C   0  0  2  0  0  0
    3.8563   -0.0230    0.0000 C   0  0
    1.2964    1.4973    0.0000 C   0  0  2  0  0  0
    2.2744    2.6085    0.0000 C   0  0
    1.7607    4.0186    0.0000 C   0  0
    2.7243    5.1692    0.0000 C   0  0  1  0  0  0
    4.2024    4.9096    0.0000 O   0  0
    2.2106    6.5794    0.0000 C   0  0
    3.1742    7.7300    0.0000 C   0  0  1  0  0  0
    4.6523    7.4703    0.0000 O   0  0
    2.6604    9.1402    0.0000 C   0  0
    3.6241   10.2908    0.0000 C   0  0
    4.8060   10.0831    0.0000 O   0  0
    3.1103   11.7009    0.0000 N   0  0
    4.0740   12.8515    0.0000 O   0  0
    0.0000    0.7486    0.0000 C   0  0  1  0  0  0
   -0.6359    7.8653    0.0000 H   0  0
    0.0423    7.1306    0.0000 H   0  0
   -0.2548    6.1759    0.0000 H   0  0
   -3.3726    6.3596    0.0000 H   0  0
   -3.0755    7.3143    0.0000 H   0  0
   -4.9859    5.5518    0.0000 H   0  0
   -5.2830    4.5971    0.0000 H   0  0
   -4.6048    3.8624    0.0000 H   0  0
   -4.8576    6.0495    0.0000 H   0  0
   -3.5856    7.2249    0.0000 H   0  0
   -4.5608    7.0043    0.0000 H   0  0
   -0.4169    1.9730    0.0000 H   0  0
   -3.4668    0.2311    0.0000 H   0  0
   -2.5849    1.7483    0.0000 H   0  0
   -1.7347   -0.2672    0.0000 H   0  0
   -1.7033   -2.7265    0.0000 H   0  0
   -2.5679   -3.2287    0.0000 H   0  0
   -3.4352   -2.7312    0.0000 H   0  0
   -1.2934   -2.4973    0.0000 H   0  0
    1.2964   -2.4973    0.0000 H   0  0
    3.4589   -1.2486    0.0000 H   0  0
    2.5684    1.7483    0.0000 H   0  0
    3.8567   -1.0230    0.0000 H   0  0
    4.7224   -0.5228    0.0000 H   0  0
    4.7223    0.4771    0.0000 H   0  0
    0.4189    1.9768    0.0000 H   0  0
    3.2593    2.4354    0.0000 H   0  0
    2.9169    3.3748    0.0000 H   0  0
    0.7758    4.1917    0.0000 H   0  0
    1.1182    3.2523    0.0000 H   0  0
    1.7394    5.3423    0.0000 H   0  0
    1.5681    5.8130    0.0000 H   0  0
    1.2256    6.7524    0.0000 H   0  0
    2.1893    7.9030    0.0000 H   0  0
    1.6755    9.3132    0.0000 H   0  0
    2.3177   10.0796    0.0000 H   0  0
   -0.8660    0.2486    0.0000 H   0  0
    4.8452    5.6756    0.0000 H   0  0
    5.2951    8.2364    0.0000 H   0  0
    2.1254   11.8739    0.0000 H   0  0
    3.7316   13.7911    0.0000 H   0  0
  1  2  1  0
  2  3  1  0
  3  4  1  0
  3  5  1  0
  3  6  1  0
  6  7  2  0
  6  8  1  0
  9  8  1  0
  9 10  1  0
 10 11  1  0
 11 12  1  0
 11 13  1  0
 13 14  2  0
 14 15  1  0
 15 16  2  0
 16 17  1  0
 17 18  1  0
 17 19  1  0
 19 20  1  0
 20 21  1  0
 21 22  1  0
 22 23  1  0
 22 24  1  0
 24 25  1  0
 25 26  1  0
 25 27  1  0
 27 28  1  0
 28 29  2  0
 28 30  1  0
 30 31  1  0
 19 32  1  0
  9 32  1  0
 32 14  1  0
  1 33  1  0
  1 34  1  0
  1 35  1  0
  2 36  1  0
  2 37  1  0
  4 38  1  0
  4 39  1  0
  4 40  1  0
  5 41  1  0
  5 42  1  0
  5 43  1  0
  9 44  1  1
 10 45  1  0
 10 46  1  0
 11 47  1  1
 12 48  1  0
 12 49  1  0
 12 50  1  0
 13 51  1  0
 15 52  1  0
 16 53  1  0
 17 54  1  6
 18 55  1  0
 18 56  1  0
 18 57  1  0
 19 58  1  6
 20 59  1  0
 20 60  1  0
 21 61  1  0
 21 62  1  0
 22 63  1  1
 24 64  1  0
 24 65  1  0
 25 66  1  1
 27 67  1  0
 27 68  1  0
 32 69  1  1
 23 70  1  0
 26 71  1  0
 30 72  1  0
 31 73  1  0
M  END
> <Name>
CHEMBL2347007

> <ALogP>
3.436

> <Molecular_Weight>
451.59614

> <Num_H_Acceptors>
6

> <Num_H_Donors>
4

> <Num_RotatableBonds>
11

> <FormalCharge>
0

$$$$
CHEMBL494124
  SciTegic01131515592D

 72 75  0  0  1  0            999 V2000
   -3.6267    2.9927    0.0000 C   0  0
   -3.6187    1.4919    0.0000 O   0  0
   -2.3155    0.7475    0.0000 C   0  0
   -2.3155   -0.7475    0.0000 C   0  0
   -1.0028   -1.5132    0.0000 C   0  0
    0.2917   -0.7475    0.0000 C   0  0
    1.7138   -1.2033    0.0000 N   0  0
    2.5889    0.0182    0.0000 C   0  0
    4.0872    0.0351    0.0000 C   0  0
    1.7138    1.2033    0.0000 C   0  0
    2.1783    2.6281    0.0000 C   0  0
    1.1759    3.7451    0.0000 C   0  0
    0.0018    3.4972    0.0000 O   0  0
    1.6411    5.1720    0.0000 N   0  0
    0.6387    6.2889    0.0000 C   0  0  1  0  0  0
   -0.8304    5.9819    0.0000 C   0  0
   -1.8316    7.1000    0.0000 C   0  0
   -3.3007    6.7929    0.0000 C   0  0
   -4.3018    7.9110    0.0000 C   0  0
   -5.7709    7.6039    0.0000 N   0  0
   -6.7721    8.7220    0.0000 S   0  0
   -6.3978    9.8621    0.0000 O   0  0
   -5.5976    8.9681    0.0000 O   0  0
   -8.2412    8.4149    0.0000 N   0  0
    1.1040    7.7159    0.0000 C   0  0
    2.2781    7.9638    0.0000 O   0  0
    0.1016    8.8329    0.0000 N   0  0
    0.5669   10.2598    0.0000 C   0  0
   -0.3179   11.4552    0.0000 N   0  0
    0.5676   12.6660    0.0000 C   0  0
    1.9927   12.1981    0.0000 C   0  0
    1.9881   10.6981    0.0000 S   0  0
    0.1082   14.0948    0.0000 C   0  0
   -1.3256   14.5183    0.0000 C   0  0
   -1.6759   15.9768    0.0000 C   0  0
   -0.5880   17.0095    0.0000 C   0  0
    0.8503   16.5837    0.0000 C   0  0
    1.2007   15.1252    0.0000 C   0  0
    0.2917    0.7475    0.0000 C   0  0
   -1.0028    1.5132    0.0000 C   0  0
   -4.4951    3.4886    0.0000 H   0  0
   -2.7632    3.4971    0.0000 H   0  0
   -3.6316    3.9927    0.0000 H   0  0
   -3.1826   -1.2456    0.0000 H   0  0
   -0.9997   -2.5132    0.0000 H   0  0
    4.5976   -0.8248    0.0000 H   0  0
    4.5770    0.9069    0.0000 H   0  0
    5.0871    0.0470    0.0000 H   0  0
    2.4887    3.5787    0.0000 H   0  0
    3.1567    2.8347    0.0000 H   0  0
   -0.0288    7.0336    0.0000 H   0  0
   -1.1424    5.0318    0.0000 H   0  0
   -0.1637    5.2366    0.0000 H   0  0
   -1.5197    8.0501    0.0000 H   0  0
   -0.8528    7.3050    0.0000 H   0  0
   -3.6126    5.8428    0.0000 H   0  0
   -2.6339    6.0476    0.0000 H   0  0
   -3.9899    8.8611    0.0000 H   0  0
   -4.9686    8.6563    0.0000 H   0  0
    2.8035   12.7834    0.0000 H   0  0
   -2.0506   13.8297    0.0000 H   0  0
   -2.6348   16.2607    0.0000 H   0  0
   -0.8216   17.9819    0.0000 H   0  0
    1.5756   17.2721    0.0000 H   0  0
    2.1591   14.8398    0.0000 H   0  0
   -0.9997    2.5132    0.0000 H   0  0
    2.0279   -2.1527    0.0000 H   0  0
    2.6195    5.3786    0.0000 H   0  0
   -6.0829    6.6538    0.0000 H   0  0
   -8.9083    9.1599    0.0000 H   0  0
   -8.5531    7.4648    0.0000 H   0  0
   -0.8768    8.6263    0.0000 H   0  0
  1  2  1  0
  2  3  1  0
  3  4  2  0
  4  5  1  0
  5  6  2  0
  6  7  1  0
  7  8  1  0
  8  9  1  0
  8 10  2  0
 10 11  1  0
 11 12  1  0
 12 13  2  0
 12 14  1  0
 15 14  1  0
 15 16  1  0
 16 17  1  0
 17 18  1  0
 18 19  1  0
 19 20  1  0
 20 21  1  0
 21 22  2  0
 21 23  2  0
 21 24  1  0
 15 25  1  0
 25 26  2  0
 25 27  1  0
 27 28  1  0
 28 29  2  0
 29 30  1  0
 30 31  2  0
 31 32  1  0
 28 32  1  0
 30 33  1  0
 33 34  2  0
 34 35  1  0
 35 36  2  0
 36 37  1  0
 37 38  2  0
 33 38  1  0
 10 39  1  0
  6 39  1  0
 39 40  2  0
  3 40  1  0
  1 41  1  0
  1 42  1  0
  1 43  1  0
  4 44  1  0
  5 45  1  0
  9 46  1  0
  9 47  1  0
  9 48  1  0
 11 49  1  0
 11 50  1  0
 15 51  1  6
 16 52  1  0
 16 53  1  0
 17 54  1  0
 17 55  1  0
 18 56  1  0
 18 57  1  0
 19 58  1  0
 19 59  1  0
 31 60  1  0
 34 61  1  0
 35 62  1  0
 36 63  1  0
 37 64  1  0
 38 65  1  0
 40 66  1  0
  7 67  1  0
 14 68  1  0
 20 69  1  0
 24 70  1  0
 24 71  1  0
 27 72  1  0
M  STY  1   1 DAT
M  SAL   1  1   7
M  SDT   1 MRV_IMPLICIT_H
M  SDD   1     0.0000    0.0000    DR    ALL  0       0
M  SED   1 IMPL_H1
M  END
> <Name>
CHEMBL494124

> <ALogP>
2.472

> <Molecular_Weight>
584.71017

> <Num_H_Acceptors>
6

> <Num_H_Donors>
5

> <Num_RotatableBonds>
13

> <FormalCharge>
0

$$$$
CHEMBL2022830
  SciTegic01131515592D

 70 72  0  0  1  0            999 V2000
    3.6375   -0.9049    0.0000 O   0  5
    2.5973   -1.5031    0.0000 N   0  3
    2.5956   -2.7031    0.0000 O   0  0
    1.2990   -0.7500    0.0000 C   0  0
    1.2990    0.7500    0.0000 C   0  0
    0.0000    1.5000    0.0000 C   0  0
   -1.2990    0.7500    0.0000 C   0  0
   -2.5988    1.5004    0.0000 C   0  0
   -2.5998    3.0012    0.0000 O   0  0
   -3.8995    3.7516    0.0000 C   0  0
   -4.9385    3.1513    0.0000 O   0  0
   -3.9005    5.2524    0.0000 C   0  0  2  0  0  0
   -2.6010    6.0032    0.0000 C   0  0
   -1.3005    5.2540    0.0000 C   0  0
   -0.0010    6.0049    0.0000 C   0  0
    1.2995    5.2557    0.0000 C   0  0
    2.5990    6.0065    0.0000 C   0  0
    3.8995    5.2574    0.0000 C   0  0
    5.1990    6.0082    0.0000 S   0  0
    6.4994    5.2590    0.0000 S   0  0
    7.7990    6.0099    0.0000 C   0  0
    9.0998    5.2630    0.0000 C   0  0
   10.3971    6.0160    0.0000 C   0  0
   10.3936    7.5160    0.0000 C   0  0
    9.0928    8.2630    0.0000 C   0  0
    7.7955    7.5099    0.0000 N   0  0
   -5.2009    6.0016    0.0000 N   0  0
   -6.5004    5.2507    0.0000 C   0  0
   -6.4997    4.0507    0.0000 O   0  0
   -7.8009    5.9999    0.0000 O   0  0
   -9.1004    5.2491    0.0000 C   0  0
  -10.4009    5.9982    0.0000 C   0  0
  -11.6992    5.2470    0.0000 C   0  0
  -12.9990    5.9957    0.0000 C   0  0
  -13.0004    7.4957    0.0000 C   0  0
  -11.7021    8.2470    0.0000 C   0  0
  -10.4023    7.4982    0.0000 C   0  0
   -1.2990   -0.7500    0.0000 C   0  0
    0.0000   -1.5000    0.0000 C   0  0
    2.1651    1.2500    0.0000 H   0  0
    0.0000    2.5000    0.0000 H   0  0
   -3.4651    2.0000    0.0000 H   0  0
   -3.4647    1.0001    0.0000 H   0  0
   -3.9011    6.2524    0.0000 H   0  0
   -2.6016    7.0032    0.0000 H   0  0
   -1.7353    6.5039    0.0000 H   0  0
   -1.2999    4.2540    0.0000 H   0  0
   -0.4342    4.7545    0.0000 H   0  0
   -0.0016    7.0049    0.0000 H   0  0
    0.8646    6.5056    0.0000 H   0  0
    1.3001    4.2557    0.0000 H   0  0
    2.1658    4.7561    0.0000 H   0  0
    2.5984    7.0065    0.0000 H   0  0
    3.4646    6.5072    0.0000 H   0  0
    3.9001    4.2574    0.0000 H   0  0
    4.7657    4.7578    0.0000 H   0  0
    9.1022    4.2630    0.0000 H   0  0
   11.2643    5.5181    0.0000 H   0  0
   11.2584    8.0181    0.0000 H   0  0
    9.0904    9.2630    0.0000 H   0  0
   -9.0998    4.2491    0.0000 H   0  0
   -8.2342    4.7495    0.0000 H   0  0
  -11.6983    4.2470    0.0000 H   0  0
  -13.8645    5.4949    0.0000 H   0  0
  -13.8669    7.9949    0.0000 H   0  0
  -11.7030    9.2470    0.0000 H   0  0
   -9.5368    7.9991    0.0000 H   0  0
   -2.1651   -1.2500    0.0000 H   0  0
    0.0000   -2.5000    0.0000 H   0  0
   -5.2016    7.0016    0.0000 H   0  0
  1  2  1  0
  2  3  2  0
  2  4  1  0
  4  5  2  0
  5  6  1  0
  6  7  2  0
  7  8  1  0
  8  9  1  0
  9 10  1  0
 10 11  2  0
 10 12  1  0
 12 13  1  0
 13 14  1  0
 14 15  1  0
 15 16  1  0
 16 17  1  0
 17 18  1  0
 18 19  1  0
 19 20  1  0
 20 21  1  0
 21 22  2  0
 22 23  1  0
 23 24  2  0
 24 25  1  0
 25 26  2  0
 21 26  1  0
 12 27  1  0
 27 28  1  0
 28 29  2  0
 28 30  1  0
 30 31  1  0
 31 32  1  0
 32 33  2  0
 33 34  1  0
 34 35  2  0
 35 36  1  0
 36 37  2  0
 32 37  1  0
  7 38  1  0
 38 39  2  0
  4 39  1  0
  5 40  1  0
  6 41  1  0
  8 42  1  0
  8 43  1  0
 12 44  1  6
 13 45  1  0
 13 46  1  0
 14 47  1  0
 14 48  1  0
 15 49  1  0
 15 50  1  0
 16 51  1  0
 16 52  1  0
 17 53  1  0
 17 54  1  0
 18 55  1  0
 18 56  1  0
 22 57  1  0
 23 58  1  0
 24 59  1  0
 25 60  1  0
 31 61  1  0
 31 62  1  0
 33 63  1  0
 34 64  1  0
 35 65  1  0
 36 66  1  0
 37 67  1  0
 38 68  1  0
 39 69  1  0
 27 70  1  0
M  CHG  2   1  -1   2   1
M  END
> <Name>
CHEMBL2022830

> <ALogP>
7.101

> <Molecular_Weight>
569.69223

> <Num_H_Acceptors>
9

> <Num_H_Donors>
1

> <Num_RotatableBonds>
18

> <FormalCharge>
0

$$$$
CHEMBL2057824
  SciTegic01131515592D

 37 39  0  0  0  0            999 V2000
    2.5973   -1.5031    0.0000 N   0  0
    1.2990   -0.7500    0.0000 C   0  0
    1.2990    0.7500    0.0000 C   0  0
    0.0000    1.5000    0.0000 C   0  0
   -1.2990    0.7500    0.0000 C   0  0
   -1.2990   -0.7500    0.0000 C   0  0
    0.0000   -1.5000    0.0000 C   0  0
    0.0031   -3.0008    0.0000 N   0  0
    1.3039   -3.7494    0.0000 C   0  0
    2.3421   -3.1476    0.0000 O   0  0
    1.3070   -5.2502    0.0000 C   0  0
    2.6060   -6.0003    0.0000 C   0  0
    2.6061   -7.5003    0.0000 C   0  0
    1.3071   -8.2503    0.0000 C   0  0
    0.0080   -7.5003    0.0000 C   0  0
    0.0080   -6.0003    0.0000 C   0  0
    1.3040   -9.7511    0.0000 N   0  0
    0.0032  -10.4997    0.0000 N   0  3
   -1.0369  -11.0983    0.0000 N   0  5
   -2.5987    1.5004    0.0000 C   0  0
   -2.7390    2.9810    0.0000 C   0  0
   -4.2067    3.2905    0.0000 C   0  0
   -4.9546    1.9903    0.0000 C   0  0
   -3.9492    0.8772    0.0000 S   0  0
    2.1651    1.2500    0.0000 H   0  0
    0.0000    2.5000    0.0000 H   0  0
   -2.1651   -1.2500    0.0000 H   0  0
    3.4721   -5.5003    0.0000 H   0  0
    3.4721   -8.0003    0.0000 H   0  0
   -0.8580   -8.0004    0.0000 H   0  0
   -0.8581   -5.5004    0.0000 H   0  0
   -1.9929    3.6469    0.0000 H   0  0
   -4.6149    4.2034    0.0000 H   0  0
   -5.9490    1.8842    0.0000 H   0  0
    2.5958   -2.5031    0.0000 H   0  0
    3.4642   -1.0046    0.0000 H   0  0
   -0.8621   -3.5023    0.0000 H   0  0
  1  2  1  0
  2  3  2  0
  3  4  1  0
  4  5  2  0
  5  6  1  0
  6  7  2  0
  2  7  1  0
  7  8  1  0
  8  9  1  0
  9 10  2  0
  9 11  1  0
 11 12  2  0
 12 13  1  0
 13 14  2  0
 14 15  1  0
 15 16  2  0
 11 16  1  0
 14 17  1  0
 17 18  2  0
 18 19  2  0
  5 20  1  0
 20 21  2  0
 21 22  1  0
 22 23  2  0
 23 24  1  0
 20 24  1  0
  3 25  1  0
  4 26  1  0
  6 27  1  0
 12 28  1  0
 13 29  1  0
 15 30  1  0
 16 31  1  0
 21 32  1  0
 22 33  1  0
 23 34  1  0
  1 35  1  0
  1 36  1  0
  8 37  1  0
M  CHG  2  18   1  19  -1
M  END
> <Name>
CHEMBL2057824

> <ALogP>
4.03

> <Molecular_Weight>
335.38302

> <Num_H_Acceptors>
4

> <Num_H_Donors>
2

> <Num_RotatableBonds>
4

> <FormalCharge>
0

$$$$
CHEMBL1091487
  SciTegic01131515592D

 37 37  0  0  0  0            999 V2000
    2.5951   -3.0039    0.0000 C   0  0
    2.5973   -1.5031    0.0000 O   0  0
    1.2990   -0.7500    0.0000 C   0  0
    1.2990    0.7500    0.0000 C   0  0
    0.0000    1.5000    0.0000 C   0  0
   -1.2990    0.7500    0.0000 C   0  0
   -2.6003    1.4977    0.0000 N   0  0
   -3.8990    0.7455    0.0000 C   0  0
   -3.8969   -0.4545    0.0000 O   0  0
   -5.2003    1.4932    0.0000 C   0  0
   -6.4990    0.7409    0.0000 C   0  0
   -7.8003    1.4887    0.0000 C   0  0
   -9.0990    0.7364    0.0000 C   0  0
  -10.4003    1.4841    0.0000 C   0  0
  -10.4024    2.6841    0.0000 O   0  0
  -11.6990    0.7318    0.0000 N   0  0
  -13.0003    1.4796    0.0000 O   0  0
   -1.2990   -0.7500    0.0000 C   0  0
    0.0000   -1.5000    0.0000 C   0  0
    3.4601   -3.5057    0.0000 H   0  0
    1.7282   -3.5024    0.0000 H   0  0
    2.5932   -4.0039    0.0000 H   0  0
    2.1651    1.2500    0.0000 H   0  0
    0.0000    2.5000    0.0000 H   0  0
   -5.2021    2.4932    0.0000 H   0  0
   -4.3353    1.9948    0.0000 H   0  0
   -6.4973   -0.2591    0.0000 H   0  0
   -5.6322    0.2423    0.0000 H   0  0
   -7.8020    2.4887    0.0000 H   0  0
   -6.9352    1.9903    0.0000 H   0  0
   -9.0972   -0.2636    0.0000 H   0  0
   -9.9641    0.2347    0.0000 H   0  0
   -2.1651   -1.2500    0.0000 H   0  0
    0.0000   -2.5000    0.0000 H   0  0
   -2.6021    2.4977    0.0000 H   0  0
  -11.6972   -0.2682    0.0000 H   0  0
  -13.8656    0.9783    0.0000 H   0  0
  1  2  1  0
  2  3  1  0
  3  4  2  0
  4  5  1  0
  5  6  2  0
  6  7  1  0
  7  8  1  0
  8  9  2  0
  8 10  1  0
 10 11  1  0
 11 12  1  0
 12 13  1  0
 13 14  1  0
 14 15  2  0
 14 16  1  0
 16 17  1  0
  6 18  1  0
 18 19  2  0
  3 19  1  0
  1 20  1  0
  1 21  1  0
  1 22  1  0
  4 23  1  0
  5 24  1  0
 10 25  1  0
 10 26  1  0
 11 27  1  0
 11 28  1  0
 12 29  1  0
 12 30  1  0
 13 31  1  0
 13 32  1  0
 18 33  1  0
 19 34  1  0
  7 35  1  0
 16 36  1  0
 17 37  1  0
M  END
> <Name>
CHEMBL1091487

> <ALogP>
1.076

> <Molecular_Weight>
266.29302

> <Num_H_Acceptors>
4

> <Num_H_Donors>
3

> <Num_RotatableBonds>
7

> <FormalCharge>
0

$$$$
CHEMBL2048755
  SciTegic01131515592D

 38 40  0  0  0  0            999 V2000
   -6.2413    5.9820    0.0000 O   0  0
   -4.9380    5.2378    0.0000 N   0  0
   -4.9300    3.7369    0.0000 C   0  0
   -5.9662    3.1317    0.0000 O   0  0
   -3.6267    2.9927    0.0000 C   0  0
   -3.6187    1.4919    0.0000 C   0  0
   -2.3155    0.7475    0.0000 C   0  0
   -2.3155   -0.7475    0.0000 C   0  0
   -1.0028   -1.5132    0.0000 C   0  0
    0.2917   -0.7475    0.0000 C   0  0
    0.2917    0.7475    0.0000 C   0  0
    1.7138    1.2033    0.0000 C   0  0
    2.5889    0.0182    0.0000 C   0  0
    1.7138   -1.2033    0.0000 N   0  0
    2.1825   -2.6263    0.0000 C   0  0
    3.6516   -2.9334    0.0000 C   0  0
    4.1200   -4.3584    0.0000 C   0  0
    5.5882   -4.6653    0.0000 C   0  0
    6.5882   -3.5472    0.0000 C   0  0
    6.1198   -2.1222    0.0000 C   0  0
    4.6515   -1.8153    0.0000 C   0  0
   -1.0028    1.5132    0.0000 C   0  0
   -2.7632    3.4971    0.0000 H   0  0
   -4.4822    0.9875    0.0000 H   0  0
   -3.1826   -1.2456    0.0000 H   0  0
   -0.9997   -2.5132    0.0000 H   0  0
    2.0210    2.1549    0.0000 H   0  0
    3.5889    0.0254    0.0000 H   0  0
    1.5162   -3.3719    0.0000 H   0  0
    1.2036   -2.4222    0.0000 H   0  0
    3.4534   -5.1038    0.0000 H   0  0
    5.9005   -5.6153    0.0000 H   0  0
    7.5670   -3.7518    0.0000 H   0  0
    6.7864   -1.3768    0.0000 H   0  0
    4.3393   -0.8653    0.0000 H   0  0
   -0.9997    2.5132    0.0000 H   0  0
   -6.2467    6.9820    0.0000 H   0  0
   -4.0746    5.7421    0.0000 H   0  0
  1  2  1  0
  2  3  1  0
  3  4  2  0
  3  5  1  0
  5  6  2  0
  6  7  1  0
  7  8  2  0
  8  9  1  0
  9 10  2  0
 10 11  1  0
 11 12  1  0
 12 13  2  0
 13 14  1  0
 10 14  1  0
 14 15  1  0
 15 16  1  0
 16 17  2  0
 17 18  1  0
 18 19  2  0
 19 20  1  0
 20 21  2  0
 16 21  1  0
 11 22  2  0
  7 22  1  0
  5 23  1  0
  6 24  1  0
  8 25  1  0
  9 26  1  0
 12 27  1  0
 13 28  1  0
 15 29  1  0
 15 30  1  0
 17 31  1  0
 18 32  1  0
 19 33  1  0
 20 34  1  0
 21 35  1  0
 22 36  1  0
  1 37  1  0
  2 38  1  0
M  END
> <Name>
CHEMBL2048755

> <ALogP>
3.395

> <Molecular_Weight>
292.33184

> <Num_H_Acceptors>
2

> <Num_H_Donors>
2

> <Num_RotatableBonds>
4

> <FormalCharge>
0

$$$$
CHEMBL514351
  SciTegic01131515592D

 58 61  0  0  0  0            999 V2000
    2.5988   -1.5004    0.0000 C   0  0
    1.2990   -0.7500    0.0000 C   0  0
    1.2990    0.7500    0.0000 C   0  0
    0.0000    1.5000    0.0000 C   0  0
   -1.2990    0.7500    0.0000 C   0  0
   -2.6003    1.4977    0.0000 N   0  0
   -2.6044    2.9986    0.0000 C   0  0
   -3.9057    3.7463    0.0000 C   0  0
   -3.9088    5.2463    0.0000 C   0  0
   -5.2094    5.9936    0.0000 C   0  0
   -6.5068    5.2409    0.0000 C   0  0
   -7.8097    5.9860    0.0000 C   0  0
   -9.1068    5.2310    0.0000 C   0  0
  -10.4097    5.9761    0.0000 C   0  0
  -10.4142    7.1761    0.0000 O   0  0
  -11.7068    5.2212    0.0000 N   0  0
  -13.0096    5.9662    0.0000 O   0  0
   -6.5038    3.7409    0.0000 C   0  0
   -5.2032    2.9936    0.0000 C   0  0
   -1.2990   -0.7500    0.0000 C   0  0
    0.0000   -1.5000    0.0000 C   0  0
    0.0031   -3.0008    0.0000 N   0  0
   -1.2946   -3.7547    0.0000 C   0  0
   -1.2937   -5.2548    0.0000 N   0  0
   -2.5923   -6.0056    0.0000 C   0  0
   -3.8918   -5.2565    0.0000 C   0  0
   -3.8928   -3.7565    0.0000 C   0  0
   -2.5943   -3.0056    0.0000 N   0  0
   -5.1930   -3.0070    0.0000 C   0  0
   -6.4928   -3.7557    0.0000 C   0  0
   -7.7912   -3.0045    0.0000 C   0  0
   -7.7898   -1.5045    0.0000 C   0  0
   -6.4900   -0.7557    0.0000 N   0  0
   -5.1917   -1.5069    0.0000 C   0  0
    3.4651   -1.0010    0.0000 H   0  0
    2.5985   -2.5004    0.0000 H   0  0
    3.4646   -2.0008    0.0000 H   0  0
    2.1651    1.2500    0.0000 H   0  0
    0.0000    2.5000    0.0000 H   0  0
   -1.7396    3.5006    0.0000 H   0  0
   -1.7371    2.5007    0.0000 H   0  0
   -3.0438    5.7481    0.0000 H   0  0
   -5.2114    6.9936    0.0000 H   0  0
   -7.8135    6.9860    0.0000 H   0  0
   -9.1030    4.2311    0.0000 H   0  0
   -7.3687    3.2391    0.0000 H   0  0
   -5.2011    1.9936    0.0000 H   0  0
   -2.1651   -1.2500    0.0000 H   0  0
   -2.5916   -7.0056    0.0000 H   0  0
   -4.7575   -5.7571    0.0000 H   0  0
   -6.4938   -4.7557    0.0000 H   0  0
   -8.6576   -3.5037    0.0000 H   0  0
   -8.6553   -1.0037    0.0000 H   0  0
   -4.3252   -1.0077    0.0000 H   0  0
   -3.4652    0.9957    0.0000 H   0  0
  -11.7030    4.2212    0.0000 H   0  0
  -13.8739    5.4632    0.0000 H   0  0
    0.8703   -3.4988    0.0000 H   0  0
  1  2  1  0
  2  3  2  0
  3  4  1  0
  4  5  2  0
  5  6  1  0
  6  7  1  0
  7  8  1  0
  8  9  2  0
  9 10  1  0
 10 11  2  0
 11 12  1  0
 12 13  2  0
 13 14  1  0
 14 15  2  0
 14 16  1  0
 16 17  1  0
 11 18  1  0
 18 19  2  0
  8 19  1  0
  5 20  1  0
 20 21  2  0
  2 21  1  0
 21 22  1  0
 22 23  1  0
 23 24  2  0
 24 25  1  0
 25 26  2  0
 26 27  1  0
 27 28  2  0
 23 28  1  0
 27 29  1  0
 29 30  2  0
 30 31  1  0
 31 32  2  0
 32 33  1  0
 33 34  2  0
 29 34  1  0
  1 35  1  0
  1 36  1  0
  1 37  1  0
  3 38  1  0
  4 39  1  0
  7 40  1  0
  7 41  1  0
  9 42  1  0
 10 43  1  0
 12 44  1  0
 13 45  1  0
 18 46  1  0
 19 47  1  0
 20 48  1  0
 25 49  1  0
 26 50  1  0
 30 51  1  0
 31 52  1  0
 32 53  1  0
 34 54  1  0
  6 55  1  0
 16 56  1  0
 17 57  1  0
 22 58  1  0
M  END
> <Name>
CHEMBL514351

> <ALogP>
3.642

> <Molecular_Weight>
452.50776

> <Num_H_Acceptors>
7

> <Num_H_Donors>
4

> <Num_RotatableBonds>
8

> <FormalCharge>
0

$$$$
CHEMBL493358
  SciTegic01131515592D

 56 59  0  0  0  0            999 V2000
    2.5988   -1.5004    0.0000 C   0  0
    1.2990   -0.7500    0.0000 C   0  0
    1.2990    0.7500    0.0000 C   0  0
    0.0000    1.5000    0.0000 C   0  0
   -1.2990    0.7500    0.0000 C   0  0
   -2.6003    1.4977    0.0000 N   0  0
   -3.8990    0.7455    0.0000 C   0  0
   -3.8969   -0.4545    0.0000 O   0  0
   -5.2003    1.4932    0.0000 C   0  0
   -6.4994    0.7432    0.0000 C   0  0
   -7.7985    1.4932    0.0000 C   0  0
   -7.7985    2.9932    0.0000 C   0  0
   -9.0967    3.7462    0.0000 C   0  0
   -9.0947    5.2471    0.0000 C   0  0
  -10.3929    6.0001    0.0000 C   0  0
  -11.4331    5.4019    0.0000 O   0  0
  -10.3908    7.5009    0.0000 N   0  0
  -11.6890    8.2540    0.0000 O   0  0
   -6.4995    3.7432    0.0000 C   0  0
   -5.2004    2.9933    0.0000 C   0  0
   -1.2990   -0.7500    0.0000 C   0  0
    0.0000   -1.5000    0.0000 C   0  0
    0.0000   -3.0008    0.0000 N   0  3
   -1.2993   -3.7521    0.0000 C   0  0
   -1.4361   -5.2330    0.0000 N   0  0
   -2.9031   -5.5458    0.0000 C   0  0
   -3.6540   -4.2472    0.0000 C   0  0
   -2.6510   -3.1318    0.0000 S   0  0
   -5.1466   -4.0913    0.0000 C   0  0
   -6.1125   -5.2324    0.0000 C   0  0
   -7.5884   -4.9648    0.0000 C   0  0
   -8.0946   -3.5527    0.0000 C   0  0
   -7.1248   -2.4084    0.0000 N   0  0
   -5.6489   -2.6760    0.0000 C   0  0
    3.4651   -1.0010    0.0000 H   0  0
    2.5985   -2.5004    0.0000 H   0  0
    3.4646   -2.0008    0.0000 H   0  0
    2.1651    1.2500    0.0000 H   0  0
    0.0000    2.5000    0.0000 H   0  0
   -6.4994   -0.2568    0.0000 H   0  0
   -8.6645    0.9932    0.0000 H   0  0
   -9.9636    3.2477    0.0000 H   0  0
   -8.2278    5.7456    0.0000 H   0  0
   -6.4995    4.7432    0.0000 H   0  0
   -4.3344    3.4933    0.0000 H   0  0
   -2.1651   -1.2500    0.0000 H   0  0
   -3.3093   -6.4596    0.0000 H   0  0
   -5.7747   -6.1737    0.0000 H   0  0
   -8.2349   -5.7277    0.0000 H   0  0
   -9.0785   -3.3743    0.0000 H   0  0
   -5.0011   -1.9142    0.0000 H   0  0
   -2.6021    2.4977    0.0000 H   0  0
   -9.5239    7.9995    0.0000 H   0  0
  -11.6876    9.2540    0.0000 H   0  0
    0.8662   -3.5005    0.0000 H   0  0
    0.8660   -2.5007    0.0000 H   0  0
  1  2  1  0
  2  3  2  0
  3  4  1  0
  4  5  2  0
  5  6  1  0
  6  7  1  0
  7  8  2  0
  7  9  1  0
  9 10  2  0
 10 11  1  0
 11 12  2  0
 12 13  1  0
 13 14  2  0
 14 15  1  0
 15 16  2  0
 15 17  1  0
 17 18  1  0
 12 19  1  0
 19 20  2  0
  9 20  1  0
  5 21  1  0
 21 22  2  0
  2 22  1  0
 22 23  1  0
 23 24  1  0
 24 25  2  0
 25 26  1  0
 26 27  2  0
 27 28  1  0
 24 28  1  0
 27 29  1  0
 29 30  2  0
 30 31  1  0
 31 32  2  0
 32 33  1  0
 33 34  2  0
 29 34  1  0
  1 35  1  0
  1 36  1  0
  1 37  1  0
  3 38  1  0
  4 39  1  0
 10 40  1  0
 11 41  1  0
 13 42  1  0
 14 43  1  0
 19 44  1  0
 20 45  1  0
 21 46  1  0
 26 47  1  0
 30 48  1  0
 31 49  1  0
 32 50  1  0
 34 51  1  0
  6 52  1  0
 17 53  1  0
 18 54  1  0
 23 55  1  0
 23 56  1  0
M  CHG  1  23   1
M  END
> <Name>
CHEMBL493358

> <ALogP>
3.172

> <Molecular_Weight>
472.53888

> <Num_H_Acceptors>
5

> <Num_H_Donors>
4

> <Num_RotatableBonds>
7

> <FormalCharge>
1

$$$$
CHEMBL402599
  SciTegic01131515592D

 47 50  0  0  0  0            999 V2000
    2.5973   -1.5031    0.0000 N   0  0
    1.2990   -0.7500    0.0000 C   0  0
    1.2990    0.7500    0.0000 C   0  0
    0.0000    1.5000    0.0000 C   0  0
   -1.2990    0.7500    0.0000 C   0  0
   -1.2990   -0.7500    0.0000 C   0  0
    0.0000   -1.5000    0.0000 C   0  0
    0.0031   -3.0008    0.0000 N   0  0
    1.3039   -3.7494    0.0000 C   0  0
    2.3421   -3.1476    0.0000 O   0  0
    1.3070   -5.2502    0.0000 C   0  0
    2.6060   -6.0003    0.0000 C   0  0
    2.6061   -7.5003    0.0000 C   0  0
    1.3071   -8.2503    0.0000 C   0  0
    1.3071   -9.7511    0.0000 C   0  0
    2.6064  -10.5023    0.0000 S   0  0
    2.6064  -12.0032    0.0000 C   0  0
    3.8182  -12.8654    0.0000 O   0  0
    3.3518  -14.2911    0.0000 C   0  0
    1.8518  -14.2880    0.0000 N   0  0
    1.3912  -12.8605    0.0000 N   0  0
    4.2314  -15.5070    0.0000 C   0  0
    5.7259  -15.4652    0.0000 C   0  0
    6.5112  -16.7432    0.0000 C   0  0
    5.7970  -18.0623    0.0000 C   0  0
    4.2976  -18.1034    0.0000 C   0  0
    3.5123  -16.8253    0.0000 C   0  0
    0.0080   -7.5003    0.0000 C   0  0
    0.0080   -6.0003    0.0000 C   0  0
    2.1651    1.2500    0.0000 H   0  0
    0.0000    2.5000    0.0000 H   0  0
   -2.1651    1.2500    0.0000 H   0  0
   -2.1651   -1.2500    0.0000 H   0  0
    3.4721   -5.5003    0.0000 H   0  0
    3.4721   -8.0003    0.0000 H   0  0
    0.4409  -10.2509    0.0000 H   0  0
    1.3067  -10.7511    0.0000 H   0  0
    6.2017  -14.5857    0.0000 H   0  0
    7.5108  -16.7158    0.0000 H   0  0
    6.3205  -18.9143    0.0000 H   0  0
    3.8215  -18.9827    0.0000 H   0  0
    2.5126  -16.8511    0.0000 H   0  0
   -0.8580   -8.0004    0.0000 H   0  0
   -0.8581   -5.5004    0.0000 H   0  0
    2.5958   -2.5031    0.0000 H   0  0
    3.4642   -1.0046    0.0000 H   0  0
   -0.8621   -3.5023    0.0000 H   0  0
  1  2  1  0
  2  3  2  0
  3  4  1  0
  4  5  2  0
  5  6  1  0
  6  7  2  0
  2  7  1  0
  7  8  1  0
  8  9  1  0
  9 10  2  0
  9 11  1  0
 11 12  2  0
 12 13  1  0
 13 14  2  0
 14 15  1  0
 15 16  1  0
 16 17  1  0
 17 18  1  0
 18 19  1  0
 19 20  2  0
 20 21  1  0
 17 21  2  0
 19 22  1  0
 22 23  2  0
 23 24  1  0
 24 25  2  0
 25 26  1  0
 26 27  2  0
 22 27  1  0
 14 28  1  0
 28 29  2  0
 11 29  1  0
  3 30  1  0
  4 31  1  0
  5 32  1  0
  6 33  1  0
 12 34  1  0
 13 35  1  0
 15 36  1  0
 15 37  1  0
 23 38  1  0
 24 39  1  0
 25 40  1  0
 26 41  1  0
 27 42  1  0
 28 43  1  0
 29 44  1  0
  1 45  1  0
  1 46  1  0
  8 47  1  0
M  END
> <Name>
CHEMBL402599

> <ALogP>
3.834

> <Molecular_Weight>
402.46892

> <Num_H_Acceptors>
5

> <Num_H_Donors>
2

> <Num_RotatableBonds>
6

> <FormalCharge>
0

$$$$
CHEMBL514671
  SciTegic01131515592D

 49 51  0  0  0  0            999 V2000
    2.5973   -1.5031    0.0000 N   0  0
    1.2990   -0.7500    0.0000 C   0  0
    1.2990    0.7500    0.0000 C   0  0
    0.0000    1.5000    0.0000 C   0  0
   -1.2990    0.7500    0.0000 C   0  0
   -1.2990   -0.7500    0.0000 C   0  0
    0.0000   -1.5000    0.0000 C   0  0
    0.0031   -3.0008    0.0000 N   0  0
    1.3039   -3.7494    0.0000 C   0  0
    2.3421   -3.1476    0.0000 O   0  0
    1.3070   -5.2502    0.0000 C   0  0
    2.6060   -6.0003    0.0000 C   0  0
    2.6061   -7.5003    0.0000 C   0  0
    1.3071   -8.2503    0.0000 C   0  0
    1.3071   -9.7511    0.0000 C   0  0
    2.6064  -10.5023    0.0000 N   0  3
    2.6064  -12.0032    0.0000 C   0  0
    3.9057  -12.7544    0.0000 O   0  0
    3.9058  -14.2552    0.0000 C   0  0
    2.8664  -14.8549    0.0000 O   0  0
    5.2051  -15.0064    0.0000 C   0  0
    5.2073  -16.5064    0.0000 C   0  0
    6.5074  -17.2546    0.0000 C   0  0
    7.8054  -16.5027    0.0000 C   0  0
    7.8032  -15.0027    0.0000 N   0  0
    6.5031  -14.2546    0.0000 C   0  0
    0.0080   -7.5003    0.0000 C   0  0
    0.0080   -6.0003    0.0000 C   0  0
    2.1651    1.2500    0.0000 H   0  0
    0.0000    2.5000    0.0000 H   0  0
   -2.1651    1.2500    0.0000 H   0  0
   -2.1651   -1.2500    0.0000 H   0  0
    3.4721   -5.5003    0.0000 H   0  0
    3.4721   -8.0003    0.0000 H   0  0
    0.4411   -9.2510    0.0000 H   0  0
    0.4409  -10.2509    0.0000 H   0  0
    2.6060  -13.0032    0.0000 H   0  0
    1.7403  -12.5029    0.0000 H   0  0
    4.3420  -17.0077    0.0000 H   0  0
    6.5088  -18.2546    0.0000 H   0  0
    8.6721  -17.0015    0.0000 H   0  0
    6.5017  -13.2546    0.0000 H   0  0
   -0.8580   -8.0004    0.0000 H   0  0
   -0.8581   -5.5004    0.0000 H   0  0
    2.5958   -2.5031    0.0000 H   0  0
    3.4642   -1.0046    0.0000 H   0  0
   -0.8621   -3.5023    0.0000 H   0  0
    2.6069   -9.5023    0.0000 H   0  0
    3.4726  -10.0026    0.0000 H   0  0
  1  2  1  0
  2  3  2  0
  3  4  1  0
  4  5  2  0
  5  6  1  0
  6  7  2  0
  2  7  1  0
  7  8  1  0
  8  9  1  0
  9 10  2  0
  9 11  1  0
 11 12  2  0
 12 13  1  0
 13 14  2  0
 14 15  1  0
 15 16  1  0
 16 17  1  0
 17 18  1  0
 18 19  1  0
 19 20  2  0
 19 21  1  0
 21 22  2  0
 22 23  1  0
 23 24  2  0
 24 25  1  0
 25 26  2  0
 21 26  1  0
 14 27  1  0
 27 28  2  0
 11 28  1  0
  3 29  1  0
  4 30  1  0
  5 31  1  0
  6 32  1  0
 12 33  1  0
 13 34  1  0
 15 35  1  0
 15 36  1  0
 17 37  1  0
 17 38  1  0
 22 39  1  0
 23 40  1  0
 24 41  1  0
 26 42  1  0
 27 43  1  0
 28 44  1  0
  1 45  1  0
  1 46  1  0
  8 47  1  0
 16 48  1  0
 16 49  1  0
M  CHG  1  16   1
M  END
> <Name>
CHEMBL514671

> <ALogP>
0.51

> <Molecular_Weight>
377.41644

> <Num_H_Acceptors>
5

> <Num_H_Donors>
3

> <Num_RotatableBonds>
8

> <FormalCharge>
1

$$$$
CHEMBL1938433
  SciTegic01131515592D

 53 56  0  0  0  0            999 V2000
   -7.0035   -6.7918    0.0000 O   0  0
   -5.7073   -6.0353    0.0000 N   0  0
   -5.7133   -4.5345    0.0000 C   0  0
   -6.7552   -3.9390    0.0000 O   0  0
   -4.4171   -3.7780    0.0000 C   0  0
   -4.4232   -2.2772    0.0000 C   0  0
   -3.1270   -1.5209    0.0000 C   0  0
   -3.1270    0.0000    0.0000 C   0  0
   -1.8194    0.7249    0.0000 C   0  0
   -0.5259    0.0000    0.0000 C   0  0
    0.7675    0.7249    0.0000 O   0  0
    2.0752    0.0000    0.0000 C   0  0
    2.4448    1.4214    0.0000 C   0  0
    3.8946    1.8194    0.0000 C   0  0
    4.9890    0.7391    0.0000 N   0  3
    6.4447    1.1028    0.0000 C   0  0
    6.8589    2.5453    0.0000 C   0  0
    8.3145    2.9076    0.0000 C   0  0
    8.7285    4.3494    0.0000 C   0  0
    7.6869    5.4288    0.0000 C   0  0
    6.2313    5.0664    0.0000 C   0  0
    5.8173    3.6247    0.0000 C   0  0
    4.5768   -0.6823    0.0000 C   0  0
    3.1412   -1.0518    0.0000 C   0  0
    2.0752   -1.5209    0.0000 C   0  0
    0.7675   -2.2742    0.0000 C   0  0
    0.7647   -3.4742    0.0000 O   0  0
   -0.5259   -1.5209    0.0000 C   0  0
   -1.8194   -2.2742    0.0000 C   0  0
   -3.5489   -4.2742    0.0000 H   0  0
   -5.2913   -1.7810    0.0000 H   0  0
   -3.9887    0.5075    0.0000 H   0  0
   -1.8170    1.7249    0.0000 H   0  0
    1.4871    1.1334    0.0000 H   0  0
    2.7196    2.3829    0.0000 H   0  0
    3.1666    2.5050    0.0000 H   0  0
    4.8648    2.0615    0.0000 H   0  0
    7.1393    0.3834    0.0000 H   0  0
    6.1691    0.1415    0.0000 H   0  0
    9.0089    2.1880    0.0000 H   0  0
    9.6989    4.5909    0.0000 H   0  0
    7.9629    6.3899    0.0000 H   0  0
    5.5370    5.7861    0.0000 H   0  0
    4.8469    3.3832    0.0000 H   0  0
    4.2803   -1.6373    0.0000 H   0  0
    5.5404   -0.4150    0.0000 H   0  0
    3.4249   -0.0929    0.0000 H   0  0
    3.8642   -1.7427    0.0000 H   0  0
    1.1979   -1.0410    0.0000 H   0  0
    2.0513   -2.5206    0.0000 H   0  0
   -1.8170   -3.2742    0.0000 H   0  0
   -6.9995   -7.7918    0.0000 H   0  0
   -4.8391   -6.5315    0.0000 H   0  0
  1  2  1  0
  2  3  1  0
  3  4  2  0
  3  5  1  0
  5  6  2  0
  6  7  1  0
  7  8  2  0
  8  9  1  0
  9 10  2  0
 10 11  1  0
 11 12  1  0
 12 13  1  0
 13 14  1  0
 14 15  1  0
 15 16  1  0
 16 17  1  0
 17 18  2  0
 18 19  1  0
 19 20  2  0
 20 21  1  0
 21 22  2  0
 17 22  1  0
 15 23  1  0
 23 24  1  0
 12 24  1  0
 12 25  1  0
 25 26  1  0
 26 27  2  0
 26 28  1  0
 10 28  1  0
 28 29  2  0
  7 29  1  0
  5 30  1  0
  6 31  1  0
  8 32  1  0
  9 33  1  0
 13 34  1  0
 13 35  1  0
 14 36  1  0
 14 37  1  0
 16 38  1  0
 16 39  1  0
 18 40  1  0
 19 41  1  0
 20 42  1  0
 21 43  1  0
 22 44  1  0
 23 45  1  0
 23 46  1  0
 24 47  1  0
 24 48  1  0
 25 49  1  0
 25 50  1  0
 29 51  1  0
  1 52  1  0
  2 53  1  0
M  CHG  1  15   1
M  END
> <Name>
CHEMBL1938433

> <ALogP>
0.96

> <Molecular_Weight>
393.4556

> <Num_H_Acceptors>
4

> <Num_H_Donors>
3

> <Num_RotatableBonds>
4

> <FormalCharge>
1

$$$$
CHEMBL385238
  SciTegic01131515592D

 51 52  0  0  1  0            999 V2000
    9.0931    3.7487    0.0000 C   0  0
    7.7935    2.9979    0.0000 C   0  0
    6.7543    3.5979    0.0000 O   0  0
    7.7930    1.4971    0.0000 C   0  0
    6.4935    0.7463    0.0000 C   0  0
    6.4930   -0.7546    0.0000 C   0  0
    5.1935   -1.5053    0.0000 C   0  0
    5.1930   -3.0062    0.0000 C   0  0
    3.8934   -3.7570    0.0000 C   0  0  2  0  0  0
    3.8912   -5.2578    0.0000 N   0  0
    5.1894   -6.0109    0.0000 C   0  0
    6.2297   -5.4127    0.0000 O   0  0
    5.1873   -7.5117    0.0000 C   0  0
    3.9707   -8.3673    0.0000 S   0  0
    4.4293   -9.7955    0.0000 N   0  0
    5.9293   -9.8007    0.0000 N   0  0
    6.3978   -8.3758    0.0000 C   0  0
    7.8207   -7.9068    0.0000 C   0  0
    2.5951   -3.0039    0.0000 C   0  0
    1.5549   -3.6021    0.0000 O   0  0
    2.5973   -1.5031    0.0000 N   0  0
    1.2990   -0.7500    0.0000 C   0  0
    1.2990    0.7500    0.0000 C   0  0
    0.0000    1.5000    0.0000 C   0  0
   -1.2990    0.7500    0.0000 C   0  0
   -1.2990   -0.7500    0.0000 C   0  0
   -2.3383   -1.3500    0.0000 Cl  0  0
    0.0000   -1.5000    0.0000 C   0  0
    9.0934    4.7487    0.0000 H   0  0
    9.9591    3.2487    0.0000 H   0  0
    9.9592    4.2485    0.0000 H   0  0
    8.6591    0.9970    0.0000 H   0  0
    8.6592    1.9969    0.0000 H   0  0
    5.6275    1.2463    0.0000 H   0  0
    5.6274    0.2464    0.0000 H   0  0
    7.3590   -1.2546    0.0000 H   0  0
    6.4931   -1.7546    0.0000 H   0  0
    4.3274   -1.0053    0.0000 H   0  0
    4.3273   -2.0052    0.0000 H   0  0
    6.0590   -3.5062    0.0000 H   0  0
    5.1931   -4.0062    0.0000 H   0  0
    3.0265   -4.2555    0.0000 H   0  0
    8.5671   -8.5723    0.0000 H   0  0
    8.0241   -6.9277    0.0000 H   0  0
    8.7703   -7.5933    0.0000 H   0  0
    2.1651    1.2500    0.0000 H   0  0
    0.0000    2.5000    0.0000 H   0  0
   -2.1651    1.2500    0.0000 H   0  0
    0.0000   -2.5000    0.0000 H   0  0
    3.0243   -5.7563    0.0000 H   0  0
    3.4642   -1.0046    0.0000 H   0  0
  1  2  1  0
  2  3  2  0
  2  4  1  0
  4  5  1  0
  5  6  1  0
  6  7  1  0
  7  8  1  0
  8  9  1  0
  9 10  1  0
 10 11  1  0
 11 12  2  0
 11 13  1  0
 13 14  1  0
 14 15  1  0
 15 16  2  0
 16 17  1  0
 13 17  2  0
 17 18  1  0
  9 19  1  0
 19 20  2  0
 19 21  1  0
 21 22  1  0
 22 23  2  0
 23 24  1  0
 24 25  2  0
 25 26  1  0
 26 27  1  0
 26 28  2  0
 22 28  1  0
  1 29  1  0
  1 30  1  0
  1 31  1  0
  4 32  1  0
  4 33  1  0
  5 34  1  0
  5 35  1  0
  6 36  1  0
  6 37  1  0
  7 38  1  0
  7 39  1  0
  8 40  1  0
  8 41  1  0
  9 42  1  1
 18 43  1  0
 18 44  1  0
 18 45  1  0
 23 46  1  0
 24 47  1  0
 25 48  1  0
 28 49  1  0
 10 50  1  0
 21 51  1  0
M  END
> <Name>
CHEMBL385238

> <ALogP>
3.113

> <Molecular_Weight>
422.92892

> <Num_H_Acceptors>
5

> <Num_H_Donors>
2

> <Num_RotatableBonds>
10

> <FormalCharge>
0

$$$$
CHEMBL271852
  SciTegic01131515592D

 42 44  0  0  0  0            999 V2000
    2.5973   -1.5031    0.0000 N   0  0
    1.2990   -0.7500    0.0000 C   0  0
    1.2990    0.7500    0.0000 C   0  0
    0.0000    1.5000    0.0000 C   0  0
   -1.2990    0.7500    0.0000 C   0  0
   -1.2990   -0.7500    0.0000 C   0  0
    0.0000   -1.5000    0.0000 C   0  0
    0.0031   -3.0008    0.0000 N   0  0
    1.3039   -3.7494    0.0000 C   0  0
    2.3421   -3.1476    0.0000 O   0  0
    1.3070   -5.2502    0.0000 C   0  0
    2.6060   -6.0003    0.0000 C   0  0
    2.6061   -7.5003    0.0000 C   0  0
    1.3071   -8.2503    0.0000 C   0  0
    1.3071   -9.7511    0.0000 C   0  0
    2.6064  -10.5023    0.0000 N   0  0
    2.6064  -12.0032    0.0000 C   0  0
    3.9039  -12.7559    0.0000 C   0  0
    3.9009  -14.2559    0.0000 C   0  0
    2.6004  -15.0032    0.0000 C   0  0
    1.3029  -14.2506    0.0000 C   0  0
    0.2624  -14.8485    0.0000 F   0  0
    1.3059  -12.7506    0.0000 N   0  0
    0.0080   -7.5003    0.0000 C   0  0
    0.0080   -6.0003    0.0000 C   0  0
    2.1651    1.2500    0.0000 H   0  0
    0.0000    2.5000    0.0000 H   0  0
   -2.1651    1.2500    0.0000 H   0  0
   -2.1651   -1.2500    0.0000 H   0  0
    3.4721   -5.5003    0.0000 H   0  0
    3.4721   -8.0003    0.0000 H   0  0
    0.4409  -10.2509    0.0000 H   0  0
    1.3067  -10.7511    0.0000 H   0  0
    4.7710  -12.2576    0.0000 H   0  0
    4.7660  -14.7576    0.0000 H   0  0
    2.5984  -16.0032    0.0000 H   0  0
   -0.8580   -8.0004    0.0000 H   0  0
   -0.8581   -5.5004    0.0000 H   0  0
    2.5958   -2.5031    0.0000 H   0  0
    3.4642   -1.0046    0.0000 H   0  0
   -0.8621   -3.5023    0.0000 H   0  0
    3.4726  -10.0026    0.0000 H   0  0
  1  2  1  0
  2  3  2  0
  3  4  1  0
  4  5  2  0
  5  6  1  0
  6  7  2  0
  2  7  1  0
  7  8  1  0
  8  9  1  0
  9 10  2  0
  9 11  1  0
 11 12  2  0
 12 13  1  0
 13 14  2  0
 14 15  1  0
 15 16  1  0
 16 17  1  0
 17 18  2  0
 18 19  1  0
 19 20  2  0
 20 21  1  0
 21 22  1  0
 21 23  2  0
 17 23  1  0
 14 24  1  0
 24 25  2  0
 11 25  1  0
  3 26  1  0
  4 27  1  0
  5 28  1  0
  6 29  1  0
 12 30  1  0
 13 31  1  0
 15 32  1  0
 15 33  1  0
 18 34  1  0
 19 35  1  0
 20 36  1  0
 24 37  1  0
 25 38  1  0
  1 39  1  0
  1 40  1  0
  8 41  1  0
 16 42  1  0
M  END
> <Name>
CHEMBL271852

> <ALogP>
3.235

> <Molecular_Weight>
336.36288

> <Num_H_Acceptors>
4

> <Num_H_Donors>
3

> <Num_RotatableBonds>
5

> <FormalCharge>
0

$$$$
CHEMBL2323286
  SciTegic01131515592D

 57 59  0  0  1  0            999 V2000
    2.3107    5.5808    0.0000 C   0  0
    3.2268    4.3920    0.0000 C   0  0
    4.7142    4.5914    0.0000 C   0  0
    2.7498    3.0164    0.0000 C   0  0  2  0  0  0
    1.4744    3.8060    0.0000 N   0  0
    0.0000    4.0816    0.0000 C   0  0
    0.0000    5.2816    0.0000 O   0  0
   -1.4745    3.8060    0.0000 C   0  0
   -2.7498    3.0164    0.0000 N   0  0
   -1.6148    1.6419    0.0000 N   0  0
   -2.2835    0.2992    0.0000 N   0  0
   -4.0642    0.3766    0.0000 C   0  0
   -3.6537    1.8193    0.0000 N   0  0
   -3.9258   -1.1170    0.0000 C   0  0
   -2.1896   -0.7137    0.0000 C   0  0
   -1.2856   -1.9107    0.0000 S   0  0
   -2.1487   -3.4703    0.0000 C   0  0
   -0.7500   -4.0122    0.0000 C   0  0
    0.7500   -4.0121    0.0000 N   0  0
    2.1487   -3.4703    0.0000 C   0  0
    2.7804   -4.4905    0.0000 O   0  0
    3.2572   -2.4597    0.0000 C   0  0
    3.9258   -1.1170    0.0000 C   0  0  2  0  0  0
    4.0642    0.3766    0.0000 O   0  0
    3.6537    1.8193    0.0000 C   0  0
    4.7279    2.3542    0.0000 O   0  0
    5.0555   -2.0354    0.0000 C   0  0
    6.4859   -1.5808    0.0000 C   0  0
    7.5954   -2.5915    0.0000 C   0  0
    9.0257   -2.1369    0.0000 C   0  0
   10.1352   -3.1476    0.0000 S   0  0
   -3.2572   -2.4598    0.0000 N   0  3
    2.6908    6.5057    0.0000 H   0  0
    1.6999    6.3726    0.0000 H   0  0
    1.3195    5.4479    0.0000 H   0  0
    3.6074    5.3167    0.0000 H   0  0
    5.0953    5.5160    0.0000 H   0  0
    5.3246    3.7993    0.0000 H   0  0
    5.7054    4.7238    0.0000 H   0  0
    3.7130    2.7478    0.0000 H   0  0
   -2.4696    3.9045    0.0000 H   0  0
   -0.8054    4.5492    0.0000 H   0  0
   -1.8487    0.2264    0.0000 H   0  0
   -1.7101   -4.2919    0.0000 H   0  0
    0.0442   -4.6198    0.0000 H   0  0
    4.1552   -2.0196    0.0000 H   0  0
    3.0797   -3.4438    0.0000 H   0  0
    4.6034   -0.3815    0.0000 H   0  0
    4.8417   -3.0123    0.0000 H   0  0
    6.6997   -0.6040    0.0000 H   0  0
    6.6425   -2.8949    0.0000 H   0  0
    7.3815   -3.5684    0.0000 H   0  0
    9.9786   -1.8336    0.0000 H   0  0
    9.2396   -1.1601    0.0000 H   0  0
    1.8357    4.7385    0.0000 H   0  0
    0.9338   -4.9951    0.0000 H   0  0
   11.0882   -2.8447    0.0000 H   0  0
  1  2  1  0
  2  3  1  0
  4  2  1  0
  4  5  1  0
  5  6  1  0
  6  7  2  0
  6  8  1  0
  8  9  1  0
  9 10  1  0
 10 11  2  0
 11 12  1  0
 12 13  2  0
  9 13  1  0
 12 14  1  0
 14 15  2  0
 15 16  1  0
 16 17  1  0
 17 18  1  0
 18 19  1  0
 19 20  1  0
 20 21  2  0
 20 22  1  0
 22 23  1  0
 23 24  1  0
 24 25  1  0
  4 25  1  0
 25 26  2  0
 23 27  1  0
 27 28  2  0
 28 29  1  0
 29 30  1  0
 30 31  1  0
 17 32  2  0
 14 32  1  0
  1 33  1  0
  1 34  1  0
  1 35  1  0
  2 36  1  0
  3 37  1  0
  3 38  1  0
  3 39  1  0
  4 40  1  6
  8 41  1  0
  8 42  1  0
 15 43  1  0
 18 44  1  0
 18 45  1  0
 22 46  1  0
 22 47  1  0
 23 48  1  1
 27 49  1  0
 28 50  1  0
 29 51  1  0
 29 52  1  0
 30 53  1  0
 30 54  1  0
  5 55  1  0
 19 56  1  0
 31 57  1  0
M  CHG  1  32   1
M  END
> <Name>
CHEMBL2323286

> <ALogP>
1.218

> <Molecular_Weight>
480.58424

> <Num_H_Acceptors>
8

> <Num_H_Donors>
4

> <Num_RotatableBonds>
4

> <FormalCharge>
1

$$$$
CHEMBL239625
  SciTegic01131515592D

 46 49  0  0  0  0            999 V2000
    9.2585    6.5891    0.0000 N   0  0
    8.4968    7.8822    0.0000 C   0  0
    9.2327    9.1893    0.0000 C   0  0
    8.4688   10.4801    0.0000 C   0  0
    6.9689   10.4640    0.0000 C   0  0
    6.2329    9.1569    0.0000 C   0  0
    6.9968    7.8660    0.0000 C   0  0
    6.2631    6.5567    0.0000 N   0  0
    7.0293    5.2662    0.0000 C   0  0
    8.2292    5.2812    0.0000 O   0  0
    6.2956    3.9569    0.0000 C   0  0
    7.0595    2.6660    0.0000 C   0  0
    6.3235    1.3590    0.0000 C   0  0
    4.8236    1.3429    0.0000 C   0  0
    4.0872    0.0351    0.0000 C   0  0
    2.5889    0.0182    0.0000 N   0  0
    1.7138    1.2033    0.0000 C   0  0
    0.2917    0.7475    0.0000 C   0  0
   -1.0028    1.5132    0.0000 C   0  0
   -2.3155    0.7475    0.0000 C   0  0
   -2.3155   -0.7475    0.0000 C   0  0
   -1.0028   -1.5132    0.0000 C   0  0
    0.2917   -0.7475    0.0000 C   0  0
    1.7138   -1.2033    0.0000 C   0  0
    2.0907   -2.3426    0.0000 O   0  0
    4.0597    2.6338    0.0000 C   0  0
    4.7957    3.9408    0.0000 C   0  0
   10.2327    9.2000    0.0000 H   0  0
    8.9594   11.3515    0.0000 H   0  0
    6.4595   11.3246    0.0000 H   0  0
    5.2330    9.1462    0.0000 H   0  0
    8.0594    2.6768    0.0000 H   0  0
    6.8328    0.4984    0.0000 H   0  0
    4.5968   -0.8253    0.0000 H   0  0
    5.0871    0.0460    0.0000 H   0  0
    1.0319    1.9347    0.0000 H   0  0
    2.6947    1.3981    0.0000 H   0  0
   -0.9997    2.5132    0.0000 H   0  0
   -3.1826    1.2456    0.0000 H   0  0
   -3.1826   -1.2456    0.0000 H   0  0
   -0.9997   -2.5132    0.0000 H   0  0
    3.0597    2.6230    0.0000 H   0  0
    4.2864    4.8014    0.0000 H   0  0
    8.7667    5.7184    0.0000 H   0  0
   10.2585    6.5981    0.0000 H   0  0
    5.2632    6.5442    0.0000 H   0  0
  1  2  1  0
  2  3  2  0
  3  4  1  0
  4  5  2  0
  5  6  1  0
  6  7  2  0
  2  7  1  0
  7  8  1  0
  8  9  1  0
  9 10  2  0
  9 11  1  0
 11 12  2  0
 12 13  1  0
 13 14  2  0
 14 15  1  0
 15 16  1  0
 16 17  1  0
 17 18  1  0
 18 19  2  0
 19 20  1  0
 20 21  2  0
 21 22  1  0
 22 23  2  0
 18 23  1  0
 23 24  1  0
 16 24  1  0
 24 25  2  0
 14 26  1  0
 26 27  2  0
 11 27  1  0
  3 28  1  0
  4 29  1  0
  5 30  1  0
  6 31  1  0
 12 32  1  0
 13 33  1  0
 15 34  1  0
 15 35  1  0
 17 36  1  0
 17 37  1  0
 19 38  1  0
 20 39  1  0
 21 40  1  0
 22 41  1  0
 26 42  1  0
 27 43  1  0
  1 44  1  0
  1 45  1  0
  8 46  1  0
M  END
> <Name>
CHEMBL239625

> <ALogP>
2.619

> <Molecular_Weight>
357.40516

> <Num_H_Acceptors>
3

> <Num_H_Donors>
2

> <Num_RotatableBonds>
4

> <FormalCharge>
0

$$$$
CHEMBL398394
  SciTegic01131515592D

 47 50  0  0  0  0            999 V2000
   11.5345   -2.7736    0.0000 N   0  0
   12.3199   -1.4946    0.0000 C   0  0
   13.8194   -1.5323    0.0000 C   0  0
   14.6018   -0.2525    0.0000 C   0  0
   13.8846    1.0650    0.0000 C   0  0
   12.3851    1.1026    0.0000 C   0  0
   11.6027   -0.1772    0.0000 C   0  0
   10.1022   -0.1425    0.0000 N   0  0
    9.3212   -1.4242    0.0000 C   0  0
    9.8968   -2.4771    0.0000 O   0  0
    7.8208   -1.3895    0.0000 C   0  0
    7.0384   -2.6693    0.0000 C   0  0
    5.5389   -2.6316    0.0000 C   0  0
    4.8217   -1.3142    0.0000 C   0  0
    3.3214   -1.2765    0.0000 C   0  0
    2.5889    0.0182    0.0000 C   0  0
    1.7138    1.2033    0.0000 C   0  0
    0.2917    0.7475    0.0000 C   0  0
   -1.0028    1.5132    0.0000 C   0  0
   -2.3155    0.7475    0.0000 C   0  0
   -2.3155   -0.7475    0.0000 C   0  0
   -1.0028   -1.5132    0.0000 C   0  0
    0.2917   -0.7475    0.0000 C   0  0
    1.7138   -1.2033    0.0000 C   0  0
    2.0907   -2.3426    0.0000 O   0  0
    5.6041   -0.0344    0.0000 C   0  0
    7.1037   -0.0721    0.0000 C   0  0
   14.2976   -2.4106    0.0000 H   0  0
   15.6015   -0.2776    0.0000 H   0  0
   14.4062    1.9182    0.0000 H   0  0
   11.9070    1.9809    0.0000 H   0  0
    7.5165   -3.5476    0.0000 H   0  0
    5.0173   -3.4848    0.0000 H   0  0
    2.8001   -2.1298    0.0000 H   0  0
    3.7996   -2.1547    0.0000 H   0  0
    3.0689    0.8955    0.0000 H   0  0
    2.6947    1.3979    0.0000 H   0  0
    1.0320    1.9348    0.0000 H   0  0
   -0.9997    2.5132    0.0000 H   0  0
   -3.1826    1.2456    0.0000 H   0  0
   -3.1826   -1.2456    0.0000 H   0  0
   -0.9997   -2.5132    0.0000 H   0  0
    5.1261    0.8439    0.0000 H   0  0
    7.6253    0.7811    0.0000 H   0  0
   10.5349   -2.7471    0.0000 H   0  0
   12.0111   -3.6527    0.0000 H   0  0
    9.6226    0.7349    0.0000 H   0  0
  1  2  1  0
  2  3  2  0
  3  4  1  0
  4  5  2  0
  5  6  1  0
  6  7  2  0
  2  7  1  0
  7  8  1  0
  8  9  1  0
  9 10  2  0
  9 11  1  0
 11 12  2  0
 12 13  1  0
 13 14  2  0
 14 15  1  0
 15 16  1  0
 16 17  1  0
 17 18  1  0
 18 19  2  0
 19 20  1  0
 20 21  2  0
 21 22  1  0
 22 23  2  0
 18 23  1  0
 23 24  1  0
 16 24  1  0
 24 25  2  0
 14 26  1  0
 26 27  2  0
 11 27  1  0
  3 28  1  0
  4 29  1  0
  5 30  1  0
  6 31  1  0
 12 32  1  0
 13 33  1  0
 15 34  1  0
 15 35  1  0
 16 36  1  0
 17 37  1  0
 17 38  1  0
 19 39  1  0
 20 40  1  0
 21 41  1  0
 22 42  1  0
 26 43  1  0
 27 44  1  0
  1 45  1  0
  1 46  1  0
  8 47  1  0
M  END
> <Name>
CHEMBL398394

> <ALogP>
3.884

> <Molecular_Weight>
356.4171

> <Num_H_Acceptors>
3

> <Num_H_Donors>
2

> <Num_RotatableBonds>
4

> <FormalCharge>
0

$$$$
CHEMBL469274
  SciTegic01131515592D

 62 63  0  0  0  0            999 V2000
    5.1894   -6.0109    0.0000 C   0  0
    3.8912   -5.2578    0.0000 C   0  0
    2.5902   -6.0059    0.0000 C   0  0
    3.8864   -6.7878    0.0000 C   0  0
    3.8933   -3.7570    0.0000 O   0  0
    2.5951   -3.0039    0.0000 C   0  0
    1.5548   -3.6021    0.0000 O   0  0
    2.5973   -1.5031    0.0000 N   0  0
    1.2990   -0.7500    0.0000 C   0  0
    1.2990    0.7500    0.0000 C   0  0
    0.0000    1.5000    0.0000 C   0  0
   -1.2990    0.7500    0.0000 C   0  0
   -1.2990   -0.7500    0.0000 C   0  0
    0.0000   -1.5000    0.0000 C   0  0
   -2.5987   -1.5004    0.0000 C   0  0
   -2.7343   -2.9815    0.0000 O   0  0
   -4.2010   -3.2957    0.0000 N   0  0
   -4.9530   -1.9978    0.0000 C   0  0
   -3.9511   -0.8815    0.0000 C   0  0
   -6.4437   -1.8467    0.0000 C   0  0
   -6.9354   -0.7521    0.0000 O   0  0
   -7.3221   -3.0635    0.0000 N   0  0
   -8.8153   -2.9121    0.0000 C   0  0
   -9.6938   -4.1290    0.0000 C   0  0
  -11.1869   -3.9776    0.0000 C   0  0
  -12.0654   -5.1944    0.0000 C   0  0
  -13.5586   -5.0430    0.0000 C   0  0
  -14.4371   -6.2599    0.0000 C   0  0
  -15.9302   -6.1085    0.0000 C   0  0
  -16.4220   -5.0139    0.0000 O   0  0
  -16.8087   -7.3253    0.0000 N   0  0
  -18.3019   -7.1739    0.0000 O   0  0
    5.1880   -7.0109    0.0000 H   0  0
    6.0546   -6.5123    0.0000 H   0  0
    6.0563   -5.5124    0.0000 H   0  0
    1.7247   -5.5050    0.0000 H   0  0
    1.7235   -6.5048    0.0000 H   0  0
    2.5888   -7.0059    0.0000 H   0  0
    3.0191   -7.2856    0.0000 H   0  0
    3.8837   -7.7878    0.0000 H   0  0
    4.7510   -7.2902    0.0000 H   0  0
    2.1651    1.2500    0.0000 H   0  0
    0.0000    2.5000    0.0000 H   0  0
   -2.1651    1.2500    0.0000 H   0  0
    0.0000   -2.5000    0.0000 H   0  0
   -4.1548    0.0975    0.0000 H   0  0
   -9.2251   -1.9999    0.0000 H   0  0
   -8.2304   -2.1011    0.0000 H   0  0
   -9.2840   -5.0412    0.0000 H   0  0
   -8.6989   -4.2303    0.0000 H   0  0
  -11.5967   -3.0654    0.0000 H   0  0
  -10.6020   -3.1665    0.0000 H   0  0
  -11.6556   -6.1066    0.0000 H   0  0
  -11.0706   -5.2958    0.0000 H   0  0
  -13.9684   -4.1308    0.0000 H   0  0
  -12.9736   -4.2320    0.0000 H   0  0
  -14.0273   -7.1721    0.0000 H   0  0
  -15.0220   -7.0710    0.0000 H   0  0
    3.4642   -1.0046    0.0000 H   0  0
   -6.9123   -3.9757    0.0000 H   0  0
  -16.3989   -8.2375    0.0000 H   0  0
  -18.8872   -7.9847    0.0000 H   0  0
  1  2  1  0
  2  3  1  0
  2  4  1  0
  2  5  1  0
  5  6  1  0
  6  7  2  0
  6  8  1  0
  8  9  1  0
  9 10  2  0
 10 11  1  0
 11 12  2  0
 12 13  1  0
 13 14  2  0
  9 14  1  0
 13 15  1  0
 15 16  1  0
 16 17  1  0
 17 18  2  0
 18 19  1  0
 15 19  2  0
 18 20  1  0
 20 21  2  0
 20 22  1  0
 22 23  1  0
 23 24  1  0
 24 25  1  0
 25 26  1  0
 26 27  1  0
 27 28  1  0
 28 29  1  0
 29 30  2  0
 29 31  1  0
 31 32  1  0
  1 33  1  0
  1 34  1  0
  1 35  1  0
  3 36  1  0
  3 37  1  0
  3 38  1  0
  4 39  1  0
  4 40  1  0
  4 41  1  0
 10 42  1  0
 11 43  1  0
 12 44  1  0
 14 45  1  0
 19 46  1  0
 23 47  1  0
 23 48  1  0
 24 49  1  0
 24 50  1  0
 25 51  1  0
 25 52  1  0
 26 53  1  0
 26 54  1  0
 27 55  1  0
 27 56  1  0
 28 57  1  0
 28 58  1  0
  8 59  1  0
 22 60  1  0
 31 61  1  0
 32 62  1  0
M  END
> <Name>
CHEMBL469274

> <ALogP>
3.23

> <Molecular_Weight>
446.4968

> <Num_H_Acceptors>
6

> <Num_H_Donors>
4

> <Num_RotatableBonds>
12

> <FormalCharge>
0

$$$$
CHEMBL254111
  SciTegic01131515592D

 45 48  0  0  0  0            999 V2000
   13.1104   -2.4736    0.0000 N   0  0
   13.8513   -1.1684    0.0000 C   0  0
   15.3512   -1.1544    0.0000 C   0  0
   16.0890    0.1516    0.0000 C   0  0
   15.3269    1.4436    0.0000 C   0  0
   13.8270    1.4296    0.0000 C   0  0
   13.0891    0.1236    0.0000 C   0  0
   11.5883    0.1065    0.0000 N   0  0
   10.8519   -1.2012    0.0000 C   0  0
   11.4634   -2.2337    0.0000 O   0  0
    9.3512   -1.2183    0.0000 C   0  0
    8.6133   -2.5243    0.0000 C   0  0
    7.1134   -2.5382    0.0000 C   0  0
    6.3513   -1.2462    0.0000 C   0  0
    4.8506   -1.2602    0.0000 C   0  0
    4.0872    0.0320    0.0000 N   0  0
    2.5889    0.0182    0.0000 C   0  0
    1.7138    1.2033    0.0000 O   0  0
    0.2917    0.7475    0.0000 C   0  0
   -1.0028    1.5132    0.0000 C   0  0
   -2.3155    0.7475    0.0000 C   0  0
   -2.3155   -0.7475    0.0000 C   0  0
   -3.3560   -1.3452    0.0000 Cl  0  0
   -1.0028   -1.5132    0.0000 C   0  0
    0.2917   -0.7475    0.0000 C   0  0
    1.7138   -1.2033    0.0000 N   0  0
    7.0892    0.0597    0.0000 C   0  0
    8.5891    0.0737    0.0000 C   0  0
   15.8593   -2.0157    0.0000 H   0  0
   17.0890    0.1609    0.0000 H   0  0
   15.8188    2.3142    0.0000 H   0  0
   13.3189    2.2909    0.0000 H   0  0
    9.1214   -3.3856    0.0000 H   0  0
    6.6215   -3.4089    0.0000 H   0  0
    4.3589   -2.1310    0.0000 H   0  0
    3.8506   -1.2700    0.0000 H   0  0
   -0.9997    2.5132    0.0000 H   0  0
   -3.1826    1.2456    0.0000 H   0  0
   -0.9997   -2.5132    0.0000 H   0  0
    6.5811    0.9211    0.0000 H   0  0
    9.0810    0.9444    0.0000 H   0  0
   12.1104   -2.4816    0.0000 H   0  0
   13.6170   -3.3358    0.0000 H   0  0
   11.0788    0.9670    0.0000 H   0  0
    4.5789    0.9028    0.0000 H   0  0
  1  2  1  0
  2  3  2  0
  3  4  1  0
  4  5  2  0
  5  6  1  0
  6  7  2  0
  2  7  1  0
  7  8  1  0
  8  9  1  0
  9 10  2  0
  9 11  1  0
 11 12  2  0
 12 13  1  0
 13 14  2  0
 14 15  1  0
 15 16  1  0
 16 17  1  0
 17 18  1  0
 18 19  1  0
 19 20  2  0
 20 21  1  0
 21 22  2  0
 22 23  1  0
 22 24  1  0
 24 25  2  0
 19 25  1  0
 25 26  1  0
 17 26  2  0
 14 27  1  0
 27 28  2  0
 11 28  1  0
  3 29  1  0
  4 30  1  0
  5 31  1  0
  6 32  1  0
 12 33  1  0
 13 34  1  0
 15 35  1  0
 15 36  1  0
 20 37  1  0
 21 38  1  0
 24 39  1  0
 27 40  1  0
 28 41  1  0
  1 42  1  0
  1 43  1  0
  8 44  1  0
 16 45  1  0
M  END
> <Name>
CHEMBL254111

> <ALogP>
3.519

> <Molecular_Weight>
392.83828

> <Num_H_Acceptors>
4

> <Num_H_Donors>
3

> <Num_RotatableBonds>
5

> <FormalCharge>
0

$$$$
CHEMBL258128
  SciTegic01131515592D

 33 35  0  0  0  0            999 V2000
    2.5973   -1.5031    0.0000 O   0  0
    1.2990   -0.7500    0.0000 C   0  0
    1.2990    0.7500    0.0000 C   0  0
    0.0000    1.5000    0.0000 C   0  0
   -1.2990    0.7500    0.0000 C   0  0
   -1.2990   -0.7500    0.0000 C   0  0
    0.0000   -1.5000    0.0000 C   0  0
    0.0031   -3.0008    0.0000 N   0  0
    1.3039   -3.7494    0.0000 C   0  0
    2.3421   -3.1476    0.0000 O   0  0
    1.3070   -5.2502    0.0000 C   0  0
    0.0935   -6.1101    0.0000 O   0  0
    0.5570   -7.5366    0.0000 N   0  0
    2.0570   -7.5366    0.0000 C   0  0
    2.5205   -6.1100    0.0000 C   0  0
   -2.5987    1.5004    0.0000 C   0  0
   -2.6012    3.0004    0.0000 C   0  0
   -3.9015    3.7484    0.0000 C   0  0
   -5.1993    2.9963    0.0000 C   0  0
   -5.1969    1.4963    0.0000 C   0  0
   -3.8967    0.7484    0.0000 C   0  0
    2.1651    1.2500    0.0000 H   0  0
    0.0000    2.5000    0.0000 H   0  0
   -2.1651   -1.2500    0.0000 H   0  0
    2.6448   -8.3456    0.0000 H   0  0
    3.4697   -5.7954    0.0000 H   0  0
   -1.7360    3.5018    0.0000 H   0  0
   -3.9030    4.7484    0.0000 H   0  0
   -6.0661    3.4949    0.0000 H   0  0
   -6.0621    0.9949    0.0000 H   0  0
   -3.8951   -0.2516    0.0000 H   0  0
    2.5958   -2.5031    0.0000 H   0  0
   -0.8621   -3.5023    0.0000 H   0  0
  1  2  1  0
  2  3  2  0
  3  4  1  0
  4  5  2  0
  5  6  1  0
  6  7  2  0
  2  7  1  0
  7  8  1  0
  8  9  1  0
  9 10  2  0
  9 11  1  0
 11 12  1  0
 12 13  1  0
 13 14  2  0
 14 15  1  0
 11 15  2  0
  5 16  1  0
 16 17  2  0
 17 18  1  0
 18 19  2  0
 19 20  1  0
 20 21  2  0
 16 21  1  0
  3 22  1  0
  4 23  1  0
  6 24  1  0
 14 25  1  0
 15 26  1  0
 17 27  1  0
 18 28  1  0
 19 29  1  0
 20 30  1  0
 21 31  1  0
  1 32  1  0
  8 33  1  0
M  END
> <Name>
CHEMBL258128

> <ALogP>
2.636

> <Molecular_Weight>
280.27808

> <Num_H_Acceptors>
3

> <Num_H_Donors>
2

> <Num_RotatableBonds>
3

> <FormalCharge>
0

$$$$
CHEMBL472233
  SciTegic01131515592D

 58 60  0  0  1  0            999 V2000
    1.2816   -9.7492    0.0000 C   0  0
    1.2851   -8.2483    0.0000 C   0  0
    0.2471   -7.6462    0.0000 O   0  0
    2.5862   -7.5001    0.0000 C   0  0
    2.5897   -5.9993    0.0000 C   0  0
    3.8907   -5.2511    0.0000 C   0  0
    3.8942   -3.7503    0.0000 C   0  0
    5.1953   -3.0021    0.0000 C   0  0
    5.1988   -1.5013    0.0000 C   0  0  2  0  0  0
    3.8990   -0.7508    0.0000 N   0  0
    2.5988   -1.5004    0.0000 S   0  0
    2.5984   -2.7004    0.0000 O   0  0
    3.6377   -2.1009    0.0000 O   0  0
    1.2990   -0.7500    0.0000 C   0  0
    1.2990    0.7500    0.0000 C   0  0
    0.0000    1.5000    0.0000 C   0  0
   -1.2990    0.7500    0.0000 C   0  0
   -1.2990   -0.7500    0.0000 C   0  0
    0.0000   -1.5000    0.0000 C   0  0
   -2.5988   -1.5004    0.0000 C   0  0
   -3.6380   -2.1004    0.0000 N   0  0
    6.4990   -0.7516    0.0000 C   0  0
    7.8500   -1.3735    0.0000 N   0  0
    8.8543   -0.2593    0.0000 C   0  0
    8.1050    1.0401    0.0000 C   0  0
    6.6376    0.7291    0.0000 N   0  0
    8.7162    2.4108    0.0000 C   0  0
   10.1874    2.6768    0.0000 C   0  0
   10.6935    4.0888    0.0000 C   0  0
    9.7236    5.2331    0.0000 C   0  0
    8.2477    4.9654    0.0000 C   0  0
    7.7417    3.5533    0.0000 C   0  0
    0.4147  -10.2477    0.0000 H   0  0
    2.1466  -10.2509    0.0000 H   0  0
    1.2797  -10.7491    0.0000 H   0  0
    3.4512   -8.0019    0.0000 H   0  0
    2.5843   -8.5001    0.0000 H   0  0
    1.7247   -5.4976    0.0000 H   0  0
    2.5915   -4.9993    0.0000 H   0  0
    4.7557   -5.7529    0.0000 H   0  0
    4.7578   -4.7530    0.0000 H   0  0
    3.0292   -3.2486    0.0000 H   0  0
    3.8961   -2.7503    0.0000 H   0  0
    6.0603   -3.5039    0.0000 H   0  0
    6.0624   -2.5040    0.0000 H   0  0
    5.1991   -0.5013    0.0000 H   0  0
    2.1651    1.2500    0.0000 H   0  0
    0.0000    2.5000    0.0000 H   0  0
   -2.1651    1.2500    0.0000 H   0  0
    0.0000   -2.5000    0.0000 H   0  0
    9.8488   -0.3644    0.0000 H   0  0
   10.8337    1.9137    0.0000 H   0  0
   11.6774    4.2673    0.0000 H   0  0
   10.0610    6.1745    0.0000 H   0  0
    7.6012    5.7282    0.0000 H   0  0
    6.7580    3.3733    0.0000 H   0  0
    3.8994    0.2492    0.0000 H   0  0
    8.0515   -2.3530    0.0000 H   0  0
  1  2  1  0
  2  3  2  0
  2  4  1  0
  4  5  1  0
  5  6  1  0
  6  7  1  0
  7  8  1  0
  8  9  1  0
  9 10  1  0
 10 11  1  0
 11 12  2  0
 11 13  2  0
 11 14  1  0
 14 15  2  0
 15 16  1  0
 16 17  2  0
 17 18  1  0
 18 19  2  0
 14 19  1  0
 18 20  1  0
 20 21  3  0
  9 22  1  0
 22 23  1  0
 23 24  1  0
 24 25  2  0
 25 26  1  0
 22 26  2  0
 25 27  1  0
 27 28  2  0
 28 29  1  0
 29 30  2  0
 30 31  1  0
 31 32  2  0
 27 32  1  0
  1 33  1  0
  1 34  1  0
  1 35  1  0
  4 36  1  0
  4 37  1  0
  5 38  1  0
  5 39  1  0
  6 40  1  0
  6 41  1  0
  7 42  1  0
  7 43  1  0
  8 44  1  0
  8 45  1  0
  9 46  1  1
 15 47  1  0
 16 48  1  0
 17 49  1  0
 19 50  1  0
 24 51  1  0
 28 52  1  0
 29 53  1  0
 30 54  1  0
 31 55  1  0
 32 56  1  0
 10 57  1  0
 23 58  1  0
M  STY  1   1 DAT
M  SAL   1  1  26
M  SDT   1 MRV_IMPLICIT_H
M  SDD   1     0.0000    0.0000    DR    ALL  0       0
M  SED   1 IMPL_H1
M  END
> <Name>
CHEMBL472233

> <ALogP>
3.886

> <Molecular_Weight>
450.55324

> <Num_H_Acceptors>
5

> <Num_H_Donors>
2

> <Num_RotatableBonds>
11

> <FormalCharge>
0

$$$$
CHEMBL472670
  SciTegic01131515592D

 54 56  0  0  0  0            999 V2000
    7.7988   -1.5020    0.0000 C   0  0
    6.4990   -0.7516    0.0000 C   0  0
    6.4995    0.7491    0.0000 C   0  0
    5.1988   -1.5012    0.0000 C   0  0
    3.8990   -0.7508    0.0000 N   0  3
    2.5988   -1.5004    0.0000 C   0  0
    1.2990   -0.7500    0.0000 C   0  0
    1.2990    0.7500    0.0000 C   0  0
    0.0000    1.5000    0.0000 C   0  0
   -1.2990    0.7500    0.0000 C   0  0
   -1.2990   -0.7500    0.0000 C   0  0
    0.0000   -1.5000    0.0000 C   0  0
   -2.6003    1.4977    0.0000 C   0  0
   -2.6024    2.6977    0.0000 O   0  0
   -3.8990    0.7455    0.0000 N   0  0
   -5.2003    1.4932    0.0000 C   0  0
   -6.4994    0.7432    0.0000 C   0  0
   -7.7985    1.4932    0.0000 C   0  0
   -7.7985    2.9932    0.0000 C   0  0
   -6.4995    3.7432    0.0000 C   0  0
   -5.2004    2.9933    0.0000 C   0  0
   -4.1612    3.5933    0.0000 O   0  5
   -9.0981    0.7428    0.0000 C   0  0
   -9.1006   -0.7573    0.0000 C   0  0
  -10.4008   -1.5053    0.0000 C   0  0
  -11.6987   -0.7532    0.0000 C   0  0
  -11.6963    0.7468    0.0000 C   0  0
  -10.3961    1.4947    0.0000 C   0  0
    8.6651   -1.0026    0.0000 H   0  0
    8.6645   -2.0025    0.0000 H   0  0
    7.7984   -2.5020    0.0000 H   0  0
    6.4987   -1.7516    0.0000 H   0  0
    5.6339    1.2499    0.0000 H   0  0
    7.3658    1.2486    0.0000 H   0  0
    6.5003    1.7491    0.0000 H   0  0
    5.1985   -2.5012    0.0000 H   0  0
    4.3327   -2.0011    0.0000 H   0  0
    2.5985   -2.5004    0.0000 H   0  0
    1.7327   -2.0003    0.0000 H   0  0
    2.1651    1.2500    0.0000 H   0  0
    0.0000    2.5000    0.0000 H   0  0
   -2.1651   -1.2500    0.0000 H   0  0
    0.0000   -2.5000    0.0000 H   0  0
   -6.4994   -0.2568    0.0000 H   0  0
   -8.6646    3.4932    0.0000 H   0  0
   -6.4995    4.7432    0.0000 H   0  0
   -8.2354   -1.2587    0.0000 H   0  0
  -10.4023   -2.5053    0.0000 H   0  0
  -12.5655   -1.2519    0.0000 H   0  0
  -12.5616    1.2481    0.0000 H   0  0
  -10.3946    2.4947    0.0000 H   0  0
    3.8993    0.2492    0.0000 H   0  0
    3.0332   -0.2504    0.0000 H   0  0
   -3.8973   -0.2545    0.0000 H   0  0
  1  2  1  0
  2  3  1  0
  2  4  1  0
  4  5  1  0
  5  6  1  0
  6  7  1  0
  7  8  2  0
  8  9  1  0
  9 10  2  0
 10 11  1  0
 11 12  2  0
  7 12  1  0
 10 13  1  0
 13 14  2  0
 13 15  1  0
 15 16  1  0
 16 17  2  0
 17 18  1  0
 18 19  2  0
 19 20  1  0
 20 21  2  0
 16 21  1  0
 21 22  1  0
 18 23  1  0
 23 24  2  0
 24 25  1  0
 25 26  2  0
 26 27  1  0
 27 28  2  0
 23 28  1  0
  1 29  1  0
  1 30  1  0
  1 31  1  0
  2 32  1  0
  3 33  1  0
  3 34  1  0
  3 35  1  0
  4 36  1  0
  4 37  1  0
  6 38  1  0
  6 39  1  0
  8 40  1  0
  9 41  1  0
 11 42  1  0
 12 43  1  0
 17 44  1  0
 19 45  1  0
 20 46  1  0
 24 47  1  0
 25 48  1  0
 26 49  1  0
 27 50  1  0
 28 51  1  0
  5 52  1  0
  5 53  1  0
 15 54  1  0
M  CHG  2   5   1  22  -1
M  END
> <Name>
CHEMBL472670

> <ALogP>
2.686

> <Molecular_Weight>
374.47544

> <Num_H_Acceptors>
2

> <Num_H_Donors>
2

> <Num_RotatableBonds>
7

> <FormalCharge>
0

$$$$
CHEMBL2347008
  SciTegic01131515592D

 78 81  0  0  1  0            999 V2000
    1.4861   -5.7579    0.0000 C   0  0
    2.9102   -6.2317    0.0000 C   0  0
    3.2113   -7.7020    0.0000 C   0  0
    4.0312   -5.2378    0.0000 C   0  0
    3.8933   -3.7570    0.0000 C   0  0
    2.4158   -3.4933    0.0000 C   0  0
    1.6429   -4.4112    0.0000 O   0  0
    1.9045   -2.0823    0.0000 N   0  0
    0.4270   -1.8186    0.0000 C   0  0
   -0.0860   -0.4091    0.0000 C   0  0
   -1.5632   -0.1486    0.0000 C   0  0
   -2.5274   -1.2977    0.0000 C   0  0
   -2.0143   -2.7072    0.0000 C   0  0
   -0.5371   -2.9677    0.0000 C   0  0
    5.2447   -3.1359    0.0000 C   0  0
    5.5480   -1.6662    0.0000 C   0  0
    4.5130   -0.5877    0.0000 C   0  0
    4.9319    0.8526    0.0000 C   0  0
    6.3887    1.2101    0.0000 C   0  0
    7.4266    0.1272    0.0000 C   0  0
    7.0078   -1.3132    0.0000 C   0  0
    6.2484   -4.2507    0.0000 C   0  0
    7.7410   -4.0938    0.0000 C   0  0
    8.4493   -2.7772    0.0000 C   0  0
    9.9487   -2.7331    0.0000 C   0  0
   10.7365   -4.0096    0.0000 C   0  0
   11.9360   -3.9743    0.0000 F   0  0
   10.0250   -5.3301    0.0000 C   0  0
    8.5257   -5.3742    0.0000 C   0  0
    5.4984   -5.5497    0.0000 N   0  3
    6.5392   -6.6275    0.0000 C   0  0
    6.1264   -8.0704    0.0000 C   0  0
    7.1690   -9.1500    0.0000 C   0  0  1  0  0  0
    8.6250   -8.7865    0.0000 O   0  0
    6.7562  -10.5930    0.0000 C   0  0
    7.7988  -11.6726    0.0000 C   0  0  1  0  0  0
    6.3137  -12.0404    0.0000 O   0  0
    7.3860  -13.1155    0.0000 C   0  0
    8.4285  -14.1951    0.0000 C   0  0
    9.5928  -13.9044    0.0000 O   0  0
    8.0158  -15.6381    0.0000 N   0  0
    9.0583  -16.7177    0.0000 O   0  0
    0.7378   -6.4212    0.0000 H   0  0
    0.5374   -5.4417    0.0000 H   0  0
    1.2855   -4.7782    0.0000 H   0  0
    2.7095   -5.2521    0.0000 H   0  0
    2.4637   -8.3661    0.0000 H   0  0
    4.1602   -8.0177    0.0000 H   0  0
    3.4125   -8.6815    0.0000 H   0  0
    0.5568    0.3569    0.0000 H   0  0
   -1.9052    0.7911    0.0000 H   0  0
   -3.5122   -1.1241    0.0000 H   0  0
   -2.6571   -3.4733    0.0000 H   0  0
   -0.1951   -3.9074    0.0000 H   0  0
    3.5419   -0.8263    0.0000 H   0  0
    4.2399    1.5746    0.0000 H   0  0
    6.6679    2.1703    0.0000 H   0  0
    8.3978    0.3655    0.0000 H   0  0
    7.6985   -2.0362    0.0000 H   0  0
    7.9238   -1.9264    0.0000 H   0  0
   10.4230   -1.8528    0.0000 H   0  0
   10.5503   -6.1810    0.0000 H   0  0
    8.0500   -6.2538    0.0000 H   0  0
    6.8147   -5.6662    0.0000 H   0  0
    7.5094   -6.3852    0.0000 H   0  0
    5.4314   -7.3514    0.0000 H   0  0
    5.1562   -8.3126    0.0000 H   0  0
    6.1987   -9.3922    0.0000 H   0  0
    5.7860  -10.8352    0.0000 H   0  0
    6.0612   -9.8739    0.0000 H   0  0
    8.7690  -11.4303    0.0000 H   0  0
    7.1105  -14.0768    0.0000 H   0  0
    6.4158  -13.3577    0.0000 H   0  0
    2.5487   -1.3174    0.0000 H   0  0
    9.3204   -9.5052    0.0000 H   0  0
    5.6197  -11.3204    0.0000 H   0  0
    7.0455  -15.8803    0.0000 H   0  0
    8.7833  -17.6791    0.0000 H   0  0
  1  2  1  0
  2  3  1  0
  2  4  1  0
  4  5  2  0
  5  6  1  0
  6  7  2  0
  6  8  1  0
  8  9  1  0
  9 10  2  0
 10 11  1  0
 11 12  2  0
 12 13  1  0
 13 14  2  0
  9 14  1  0
  5 15  1  0
 15 16  1  0
 16 17  2  0
 17 18  1  0
 18 19  2  0
 19 20  1  0
 20 21  2  0
 16 21  1  0
 15 22  2  0
 22 23  1  0
 23 24  2  0
 24 25  1  0
 25 26  2  0
 26 27  1  0
 26 28  1  0
 28 29  2  0
 23 29  1  0
 22 30  1  0
  4 30  1  0
 30 31  1  0
 31 32  1  0
 32 33  1  0
 33 34  1  0
 33 35  1  0
 35 36  1  0
 36 37  1  0
 36 38  1  0
 38 39  1  0
 39 40  2  0
 39 41  1  0
 41 42  1  0
  1 43  1  0
  1 44  1  0
  1 45  1  0
  2 46  1  0
  3 47  1  0
  3 48  1  0
  3 49  1  0
 10 50  1  0
 11 51  1  0
 12 52  1  0
 13 53  1  0
 14 54  1  0
 17 55  1  0
 18 56  1  0
 19 57  1  0
 20 58  1  0
 21 59  1  0
 24 60  1  0
 25 61  1  0
 28 62  1  0
 29 63  1  0
 31 64  1  0
 31 65  1  0
 32 66  1  0
 32 67  1  0
 33 68  1  6
 35 69  1  0
 35 70  1  0
 36 71  1  1
 38 72  1  0
 38 73  1  0
  8 74  1  0
 34 75  1  0
 37 76  1  0
 41 77  1  0
 42 78  1  0
M  CHG  1  30   1
M  END
> <Name>
CHEMBL2347008

> <ALogP>
2.2

> <Molecular_Weight>
574.66238

> <Num_H_Acceptors>
5

> <Num_H_Donors>
6

> <Num_RotatableBonds>
12

> <FormalCharge>
1

$$$$
CHEMBL2347009
  SciTegic01131515592D

 59 60  0  0  1  0            999 V2000
    3.7425    0.1385    0.0000 C   0  0
    2.7771   -1.0106    0.0000 C   0  0
    3.2899   -2.4210    0.0000 C   0  0
    1.2990   -0.7500    0.0000 C   0  0
    1.2990    0.7500    0.0000 N   0  3
    0.0000    1.5000    0.0000 C   0  0
   -1.2990    0.7500    0.0000 N   0  0
   -1.2990   -0.7500    0.0000 C   0  0
    0.0000   -1.5000    0.0000 C   0  0
    0.9671   -2.6477    0.0000 C   0  0
    0.4576   -4.0594    0.0000 C   0  0
    1.4247   -5.2071    0.0000 C   0  0  1  0  0  0
    2.6059   -4.9959    0.0000 O   0  0
    0.9151   -6.6188    0.0000 C   0  0
    1.8822   -7.7665    0.0000 C   0  0  1  0  0  0
    2.6559   -8.6838    0.0000 O   0  0
    1.3727   -9.1782    0.0000 C   0  0
    2.3398  -10.3259    0.0000 C   0  0
    3.5210  -10.1147    0.0000 O   0  0
    1.8303  -11.7376    0.0000 N   0  0
    2.6035  -12.6553    0.0000 O   0  0
   -2.7770   -1.0106    0.0000 C   0  0
   -3.7431    0.1369    0.0000 C   0  0
   -5.2199   -0.1259    0.0000 C   0  0
   -5.7307   -1.5363    0.0000 C   0  0
   -6.9121   -1.7465    0.0000 F   0  0
   -4.7647   -2.6838    0.0000 C   0  0
   -3.2879   -2.4210    0.0000 C   0  0
   -0.0031    3.0008    0.0000 N   0  0
    1.2969    3.7508    0.0000 C   0  0
   -1.3039    3.7494    0.0000 S   0  0
   -1.3020    2.5494    0.0000 O   0  0
   -2.3421    3.1476    0.0000 O   0  0
   -1.3070    5.2502    0.0000 C   0  0
    4.7273   -0.0352    0.0000 H   0  0
    4.3854    0.9044    0.0000 H   0  0
    3.4008    1.0783    0.0000 H   0  0
    2.4353   -0.0708    0.0000 H   0  0
    4.2745   -2.5956    0.0000 H   0  0
    2.6466   -3.1867    0.0000 H   0  0
    3.6312   -3.3610    0.0000 H   0  0
    1.9515   -2.4717    0.0000 H   0  0
   -0.5268   -4.2354    0.0000 H   0  0
    0.4403   -5.3831    0.0000 H   0  0
   -0.0693   -6.7948    0.0000 H   0  0
    0.2704   -5.8544    0.0000 H   0  0
    2.8666   -7.5905    0.0000 H   0  0
    1.0328  -10.1187    0.0000 H   0  0
    0.3883   -9.3542    0.0000 H   0  0
   -3.4026    1.0772    0.0000 H   0  0
   -5.8639    0.6391    0.0000 H   0  0
   -5.1052   -3.6240    0.0000 H   0  0
   -2.6439   -3.1860    0.0000 H   0  0
    2.1631    3.2511    0.0000 H   0  0
    2.1628    4.2510    0.0000 H   0  0
    1.2969    4.7508    0.0000 H   0  0
   -2.1738    5.7490    0.0000 H   0  0
   -1.3086    6.2502    0.0000 H   0  0
   -0.4419    5.7517    0.0000 H   0  0
  1  2  1  0
  2  3  1  0
  2  4  1  0
  4  5  2  0
  5  6  1  0
  6  7  2  0
  7  8  1  0
  8  9  2  0
  4  9  1  0
  9 10  1  0
 10 11  2  0
 11 12  1  0
 12 13  1  0
 12 14  1  0
 14 15  1  0
 15 16  1  0
 15 17  1  0
 17 18  1  0
 18 19  2  0
 18 20  1  0
 20 21  1  0
  8 22  1  0
 22 23  2  0
 23 24  1  0
 24 25  2  0
 25 26  1  0
 25 27  1  0
 27 28  2  0
 22 28  1  0
  6 29  1  0
 29 30  1  0
 29 31  1  0
 31 32  2  0
 31 33  2  0
 31 34  1  0
  1 35  1  0
  1 36  1  0
  1 37  1  0
  2 38  1  0
  3 39  1  0
  3 40  1  0
  3 41  1  0
 10 42  1  0
 11 43  1  0
 12 44  1  6
 14 45  1  0
 14 46  1  0
 15 47  1  6
 17 48  1  0
 17 49  1  0
 23 50  1  0
 24 51  1  0
 27 52  1  0
 28 53  1  0
 30 54  1  0
 30 55  1  0
 30 56  1  0
 34 57  1  0
 34 58  1  0
 34 59  1  0
M  CHG  1   5   1
M  END
> <Name>
CHEMBL2347009

> <ALogP>
1.666

> <Molecular_Weight>
497.5602

> <Num_H_Acceptors>
7

> <Num_H_Donors>
5

> <Num_RotatableBonds>
10

> <FormalCharge>
1

$$$$
CHEMBL245363
  SciTegic01131515592D

 41 43  0  0  0  0            999 V2000
    6.3513   -1.2462    0.0000 O   0  0
    4.8506   -1.2602    0.0000 N   0  0
    4.0872    0.0320    0.0000 C   0  0
    4.6772    1.0770    0.0000 O   0  0
    2.5889    0.0182    0.0000 C   0  0
    1.7138    1.2033    0.0000 C   0  0
    0.2917    0.7475    0.0000 C   0  0
   -1.0028    1.5132    0.0000 C   0  0
   -2.3155    0.7475    0.0000 C   0  0
   -2.3155   -0.7475    0.0000 C   0  0
   -3.6202   -1.4892    0.0000 C   0  0
   -4.9153   -0.7308    0.0000 N   0  0
   -6.2201   -1.4724    0.0000 C   0  0
   -7.5152   -0.7140    0.0000 C   0  0
   -8.8200   -1.4556    0.0000 C   0  0
   -8.8302   -2.9556    0.0000 C   0  0
  -10.1343   -3.6967    0.0000 C   0  0
  -11.4282   -2.9379    0.0000 C   0  0
  -11.4180   -1.4380    0.0000 C   0  0
  -10.1140   -0.6968    0.0000 C   0  0
   -1.0028   -1.5132    0.0000 C   0  0
    0.2917   -0.7475    0.0000 C   0  0
    1.7138   -1.2033    0.0000 S   0  0
    2.0210    2.1549    0.0000 H   0  0
   -0.9997    2.5132    0.0000 H   0  0
   -3.1826    1.2456    0.0000 H   0  0
   -3.6266   -2.4892    0.0000 H   0  0
   -4.4893   -1.9837    0.0000 H   0  0
   -6.2266   -2.4724    0.0000 H   0  0
   -5.3574   -1.9781    0.0000 H   0  0
   -7.5088    0.2860    0.0000 H   0  0
   -8.3779   -0.2083    0.0000 H   0  0
   -7.9676   -3.4614    0.0000 H   0  0
  -10.1411   -4.6967    0.0000 H   0  0
  -12.2976   -3.4320    0.0000 H   0  0
  -12.2807   -0.9321    0.0000 H   0  0
  -10.1072    0.3032    0.0000 H   0  0
   -0.9997   -2.5132    0.0000 H   0  0
    6.8599   -2.1072    0.0000 H   0  0
    4.3589   -2.1310    0.0000 H   0  0
   -4.9088    0.2692    0.0000 H   0  0
  1  2  1  0
  2  3  1  0
  3  4  2  0
  3  5  1  0
  5  6  2  0
  6  7  1  0
  7  8  2  0
  8  9  1  0
  9 10  2  0
 10 11  1  0
 11 12  1  0
 12 13  1  0
 13 14  1  0
 14 15  1  0
 15 16  2  0
 16 17  1  0
 17 18  2  0
 18 19  1  0
 19 20  2  0
 15 20  1  0
 10 21  1  0
 21 22  2  0
  7 22  1  0
 22 23  1  0
  5 23  1  0
  6 24  1  0
  8 25  1  0
  9 26  1  0
 11 27  1  0
 11 28  1  0
 13 29  1  0
 13 30  1  0
 14 31  1  0
 14 32  1  0
 16 33  1  0
 17 34  1  0
 18 35  1  0
 19 36  1  0
 20 37  1  0
 21 38  1  0
  1 39  1  0
  2 40  1  0
 12 41  1  0
M  END
> <Name>
CHEMBL245363

> <ALogP>
3.44

> <Molecular_Weight>
326.41272

> <Num_H_Acceptors>
3

> <Num_H_Donors>
3

> <Num_RotatableBonds>
6

> <FormalCharge>
0

$$$$
CHEMBL236129
  SciTegic01131515592D

 56 57  0  0  1  0            999 V2000
   11.6945   -8.2594    0.0000 S   0  0
   10.3954   -7.5077    0.0000 C   0  0
   10.3959   -6.0069    0.0000 C   0  0
    9.0968   -5.2553    0.0000 C   0  0
    9.0973   -3.7544    0.0000 C   0  0
    7.7983   -3.0028    0.0000 C   0  0
    7.7988   -1.5020    0.0000 C   0  0  2  0  0  0
    6.4990   -0.7516    0.0000 N   0  0
    5.1988   -1.5012    0.0000 C   0  0
    5.1984   -2.7012    0.0000 O   0  0
    3.8990   -0.7508    0.0000 O   0  0
    2.5988   -1.5004    0.0000 C   0  0
    1.2990   -0.7500    0.0000 C   0  0
    1.2990    0.7500    0.0000 C   0  0
    0.0000    1.5000    0.0000 C   0  0
   -1.2990    0.7500    0.0000 C   0  0
   -1.2990   -0.7500    0.0000 C   0  0
    0.0000   -1.5000    0.0000 C   0  0
    9.0990   -0.7525    0.0000 C   0  0
    9.0994    0.4475    0.0000 O   0  0
   10.3987   -1.5029    0.0000 N   0  0
   11.6990   -0.7533    0.0000 C   0  0
   10.4858    0.0653    0.0000 C   0  0
   10.9500    1.4917    0.0000 C   0  0
   12.4500    1.4910    0.0000 C   0  0
   12.9129    0.0642    0.0000 C   0  0
   10.3946   -8.5077    0.0000 H   0  0
    9.5291   -8.0072    0.0000 H   0  0
   10.3967   -5.0069    0.0000 H   0  0
   11.2622   -5.5075    0.0000 H   0  0
    8.2311   -4.7549    0.0000 H   0  0
    8.2305   -5.7547    0.0000 H   0  0
    9.0981   -2.7544    0.0000 H   0  0
    9.9637   -3.2550    0.0000 H   0  0
    7.7975   -4.0028    0.0000 H   0  0
    6.9319   -3.5022    0.0000 H   0  0
    6.9326   -2.0019    0.0000 H   0  0
    2.5985   -2.5004    0.0000 H   0  0
    3.4646   -2.0008    0.0000 H   0  0
    2.1651    1.2500    0.0000 H   0  0
    0.0000    2.5000    0.0000 H   0  0
   -2.1651    1.2500    0.0000 H   0  0
   -2.1651   -1.2500    0.0000 H   0  0
    0.0000   -2.5000    0.0000 H   0  0
   12.5648   -1.2535    0.0000 H   0  0
   10.3081   -0.9187    0.0000 H   0  0
    9.7402    0.7317    0.0000 H   0  0
    9.9571    1.3728    0.0000 H   0  0
   11.3707    2.3989    0.0000 H   0  0
   12.0301    2.3985    0.0000 H   0  0
   13.4428    1.3712    0.0000 H   0  0
   13.0897   -0.9201    0.0000 H   0  0
   13.6591    0.7299    0.0000 H   0  0
   11.6941   -9.2594    0.0000 H   0  0
    6.4993    0.2484    0.0000 H   0  0
   10.3984   -2.5029    0.0000 H   0  0
  1  2  1  0
  2  3  1  0
  3  4  1  0
  4  5  1  0
  5  6  1  0
  6  7  1  0
  7  8  1  0
  8  9  1  0
  9 10  2  0
  9 11  1  0
 11 12  1  0
 12 13  1  0
 13 14  2  0
 14 15  1  0
 15 16  2  0
 16 17  1  0
 17 18  2  0
 13 18  1  0
  7 19  1  0
 19 20  2  0
 19 21  1  0
 21 22  1  0
 22 23  1  0
 23 24  1  0
 24 25  1  0
 25 26  1  0
 22 26  1  0
  2 27  1  0
  2 28  1  0
  3 29  1  0
  3 30  1  0
  4 31  1  0
  4 32  1  0
  5 33  1  0
  5 34  1  0
  6 35  1  0
  6 36  1  0
  7 37  1  1
 12 38  1  0
 12 39  1  0
 14 40  1  0
 15 41  1  0
 16 42  1  0
 17 43  1  0
 18 44  1  0
 22 45  1  0
 23 46  1  0
 23 47  1  0
 24 48  1  0
 24 49  1  0
 25 50  1  0
 25 51  1  0
 26 52  1  0
 26 53  1  0
  1 54  1  0
  8 55  1  0
 21 56  1  0
M  END
> <Name>
CHEMBL236129

> <ALogP>
4.184

> <Molecular_Weight>
378.5288

> <Num_H_Acceptors>
4

> <Num_H_Donors>
3

> <Num_RotatableBonds>
11

> <FormalCharge>
0

$$$$
CHEMBL227119
  SciTegic01131515592D

 40 40  0  0  0  0            999 V2000
    2.5951   -3.0039    0.0000 C   0  0
    2.5973   -1.5031    0.0000 N   0  0
    3.8968   -0.7523    0.0000 C   0  0
    1.2990   -0.7500    0.0000 C   0  0
    1.2990    0.7500    0.0000 C   0  0
    0.0000    1.5000    0.0000 C   0  0
   -1.2990    0.7500    0.0000 C   0  0
   -2.5988    1.5004    0.0000 C   0  0
   -2.5998    3.0012    0.0000 N   0  0
   -3.8995    3.7516    0.0000 C   0  0
   -4.9385    3.1513    0.0000 O   0  0
   -3.9005    5.2525    0.0000 N   0  0
   -5.2002    6.0029    0.0000 C   0  0
   -5.2012    7.5037    0.0000 C   0  0
   -6.5009    8.2541    0.0000 C   0  0
   -7.5400    7.6538    0.0000 O   0  0
   -6.5019    9.7549    0.0000 N   0  0
   -7.8017   10.5053    0.0000 O   0  0
   -1.2990   -0.7500    0.0000 C   0  0
    0.0000   -1.5000    0.0000 C   0  0
    3.4601   -3.5057    0.0000 H   0  0
    2.5932   -4.0039    0.0000 H   0  0
    1.7282   -3.5024    0.0000 H   0  0
    3.8971    0.2477    0.0000 H   0  0
    4.7629   -0.2524    0.0000 H   0  0
    4.7628   -1.2523    0.0000 H   0  0
    2.1651    1.2500    0.0000 H   0  0
    0.0000    2.5000    0.0000 H   0  0
   -3.4647    1.0001    0.0000 H   0  0
   -3.4651    2.0000    0.0000 H   0  0
   -6.0661    5.5026    0.0000 H   0  0
   -5.2001    5.0029    0.0000 H   0  0
   -4.3353    8.0040    0.0000 H   0  0
   -5.2013    8.5037    0.0000 H   0  0
   -2.1651   -1.2500    0.0000 H   0  0
    0.0000   -2.5000    0.0000 H   0  0
   -1.7339    3.5015    0.0000 H   0  0
   -3.0346    5.7527    0.0000 H   0  0
   -5.6360   10.2552    0.0000 H   0  0
   -7.8023   11.5053    0.0000 H   0  0
  1  2  1  0
  2  3  1  0
  2  4  1  0
  4  5  2  0
  5  6  1  0
  6  7  2  0
  7  8  1  0
  8  9  1  0
  9 10  1  0
 10 11  2  0
 10 12  1  0
 12 13  1  0
 13 14  1  0
 14 15  1  0
 15 16  2  0
 15 17  1  0
 17 18  1  0
  7 19  1  0
 19 20  2  0
  4 20  1  0
  1 21  1  0
  1 22  1  0
  1 23  1  0
  3 24  1  0
  3 25  1  0
  3 26  1  0
  5 27  1  0
  6 28  1  0
  8 29  1  0
  8 30  1  0
 13 31  1  0
 13 32  1  0
 14 33  1  0
 14 34  1  0
 19 35  1  0
 20 36  1  0
  9 37  1  0
 12 38  1  0
 17 39  1  0
 18 40  1  0
M  END
> <Name>
CHEMBL227119

> <ALogP>
0.23

> <Molecular_Weight>
280.3229

> <Num_H_Acceptors>
4

> <Num_H_Donors>
4

> <Num_RotatableBonds>
6

> <FormalCharge>
0

$$$$
CHEMBL398884
  SciTegic01131515592D

 34 36  0  0  0  0            999 V2000
    2.5973   -1.5031    0.0000 O   0  0
    1.2990   -0.7500    0.0000 C   0  0
    1.2990    0.7500    0.0000 C   0  0
    0.0000    1.5000    0.0000 C   0  0
   -1.2990    0.7500    0.0000 C   0  0
   -1.2990   -0.7500    0.0000 C   0  0
    0.0000   -1.5000    0.0000 C   0  0
    0.0031   -3.0008    0.0000 N   0  0
    1.3039   -3.7494    0.0000 C   0  0
    2.3421   -3.1476    0.0000 O   0  0
    1.3070   -5.2502    0.0000 C   0  0
    2.5205   -6.1100    0.0000 C   0  0
    2.0570   -7.5366    0.0000 C   0  0
    0.5570   -7.5366    0.0000 C   0  0
    0.0935   -6.1100    0.0000 S   0  0
   -2.5987    1.5004    0.0000 C   0  0
   -2.6012    3.0004    0.0000 C   0  0
   -3.9015    3.7484    0.0000 C   0  0
   -5.1993    2.9963    0.0000 C   0  0
   -5.1969    1.4963    0.0000 C   0  0
   -3.8967    0.7484    0.0000 C   0  0
    2.1651    1.2500    0.0000 H   0  0
    0.0000    2.5000    0.0000 H   0  0
   -2.1651   -1.2500    0.0000 H   0  0
    3.4697   -5.7954    0.0000 H   0  0
    2.6448   -8.3456    0.0000 H   0  0
   -0.0308   -8.3457    0.0000 H   0  0
   -1.7360    3.5018    0.0000 H   0  0
   -3.9030    4.7484    0.0000 H   0  0
   -6.0661    3.4949    0.0000 H   0  0
   -6.0621    0.9949    0.0000 H   0  0
   -3.8951   -0.2516    0.0000 H   0  0
    2.5958   -2.5031    0.0000 H   0  0
   -0.8621   -3.5023    0.0000 H   0  0
  1  2  1  0
  2  3  2  0
  3  4  1  0
  4  5  2  0
  5  6  1  0
  6  7  2  0
  2  7  1  0
  7  8  1  0
  8  9  1  0
  9 10  2  0
  9 11  1  0
 11 12  2  0
 12 13  1  0
 13 14  2  0
 14 15  1  0
 11 15  1  0
  5 16  1  0
 16 17  2  0
 17 18  1  0
 18 19  2  0
 19 20  1  0
 20 21  2  0
 16 21  1  0
  3 22  1  0
  4 23  1  0
  6 24  1  0
 12 25  1  0
 13 26  1  0
 14 27  1  0
 17 28  1  0
 18 29  1  0
 19 30  1  0
 20 31  1  0
 21 32  1  0
  1 33  1  0
  8 34  1  0
M  END
> <Name>
CHEMBL398884

> <ALogP>
3.844

> <Molecular_Weight>
295.35562

> <Num_H_Acceptors>
2

> <Num_H_Donors>
2

> <Num_RotatableBonds>
3

> <FormalCharge>
0

$$$$
CHEMBL481297
  SciTegic01131515592D

 35 35  0  0  0  0            999 V2000
    6.4855   -8.2648    0.0000 C   0  0
    5.1873   -7.5117    0.0000 C   0  0
    5.1894   -6.0109    0.0000 N   0  0
    3.8912   -5.2578    0.0000 C   0  0
    2.8509   -5.8560    0.0000 S   0  0
    3.8933   -3.7570    0.0000 S   0  0
    2.5951   -3.0039    0.0000 C   0  0
    2.5973   -1.5031    0.0000 C   0  0
    3.6375   -0.9049    0.0000 O   0  0
    1.2990   -0.7500    0.0000 C   0  0
    1.2990    0.7500    0.0000 C   0  0
    0.0000    1.5000    0.0000 C   0  0
   -1.2990    0.7500    0.0000 C   0  0
   -2.6003    1.4977    0.0000 N   0  0
   -3.8990    0.7455    0.0000 C   0  0
   -3.8969   -0.4545    0.0000 O   0  0
   -5.2003    1.4932    0.0000 C   0  0
   -1.2990   -0.7500    0.0000 C   0  0
    0.0000   -1.5000    0.0000 C   0  0
    6.4840   -9.2648    0.0000 H   0  0
    7.3524   -7.7663    0.0000 H   0  0
    7.3507   -8.7662    0.0000 H   0  0
    4.3204   -8.0102    0.0000 H   0  0
    4.3220   -7.0104    0.0000 H   0  0
    1.7282   -3.5024    0.0000 H   0  0
    2.5932   -4.0039    0.0000 H   0  0
    2.1651    1.2500    0.0000 H   0  0
    0.0000    2.5000    0.0000 H   0  0
   -6.0656    0.9920    0.0000 H   0  0
   -6.0671    1.9918    0.0000 H   0  0
   -5.2021    2.4932    0.0000 H   0  0
   -2.1651   -1.2500    0.0000 H   0  0
    0.0000   -2.5000    0.0000 H   0  0
    6.0563   -5.5124    0.0000 H   0  0
   -2.6021    2.4977    0.0000 H   0  0
  1  2  1  0
  2  3  1  0
  3  4  1  0
  4  5  2  0
  4  6  1  0
  6  7  1  0
  7  8  1  0
  8  9  2  0
  8 10  1  0
 10 11  2  0
 11 12  1  0
 12 13  2  0
 13 14  1  0
 14 15  1  0
 15 16  2  0
 15 17  1  0
 13 18  1  0
 18 19  2  0
 10 19  1  0
  1 20  1  0
  1 21  1  0
  1 22  1  0
  2 23  1  0
  2 24  1  0
  7 25  1  0
  7 26  1  0
 11 27  1  0
 12 28  1  0
 17 29  1  0
 17 30  1  0
 17 31  1  0
 18 32  1  0
 19 33  1  0
  3 34  1  0
 14 35  1  0
M  END
> <Name>
CHEMBL481297

> <ALogP>
2.393

> <Molecular_Weight>
296.40834

> <Num_H_Acceptors>
4

> <Num_H_Donors>
2

> <Num_RotatableBonds>
7

> <FormalCharge>
0

$$$$
CHEMBL1808627
  SciTegic01131515592D

 42 43  0  0  0  0            999 V2000
    8.5614    2.6848    0.0000 C   0  0
    7.0607    2.6677    0.0000 C   0  0
    6.3243    1.3600    0.0000 C   0  0
    4.8236    1.3429    0.0000 C   0  0
    4.0872    0.0351    0.0000 S   0  0
    4.6987   -0.9974    0.0000 O   0  0
    3.4989   -1.0108    0.0000 O   0  0
    2.5889    0.0182    0.0000 N   0  0
    1.7138    1.2033    0.0000 C   0  0
    0.2917    0.7475    0.0000 C   0  0
   -1.0028    1.5132    0.0000 C   0  0
   -2.3155    0.7475    0.0000 C   0  0
   -2.3155   -0.7475    0.0000 C   0  0
   -3.6187   -1.4919    0.0000 C   0  0
   -3.6267   -2.9927    0.0000 C   0  0
   -4.9300   -3.7369    0.0000 C   0  0
   -5.9662   -3.1317    0.0000 O   0  0
   -4.9380   -5.2378    0.0000 N   0  0
   -6.2413   -5.9820    0.0000 O   0  0
   -1.0028   -1.5132    0.0000 C   0  0
    0.2917   -0.7475    0.0000 C   0  0
    1.7138   -1.2033    0.0000 C   0  0
    9.0521    3.5561    0.0000 H   0  0
    9.0710    1.8244    0.0000 H   0  0
    9.5614    2.6957    0.0000 H   0  0
    6.5512    3.5281    0.0000 H   0  0
    6.0608    2.6568    0.0000 H   0  0
    6.8339    0.4995    0.0000 H   0  0
    5.8341    0.4884    0.0000 H   0  0
    4.3140    2.2033    0.0000 H   0  0
    3.8237    1.3320    0.0000 H   0  0
    1.0319    1.9347    0.0000 H   0  0
    2.6947    1.3981    0.0000 H   0  0
   -0.9997    2.5132    0.0000 H   0  0
   -3.1826    1.2456    0.0000 H   0  0
   -4.4822   -0.9875    0.0000 H   0  0
   -2.7632   -3.4971    0.0000 H   0  0
   -0.9997   -2.5132    0.0000 H   0  0
    1.0376   -1.9400    0.0000 H   0  0
    2.6959   -1.3916    0.0000 H   0  0
   -4.0746   -5.7421    0.0000 H   0  0
   -6.2467   -6.9820    0.0000 H   0  0
  1  2  1  0
  2  3  1  0
  3  4  1  0
  4  5  1  0
  5  6  2  0
  5  7  2  0
  5  8  1  0
  8  9  1  0
  9 10  1  0
 10 11  2  0
 11 12  1  0
 12 13  2  0
 13 14  1  0
 14 15  2  0
 15 16  1  0
 16 17  2  0
 16 18  1  0
 18 19  1  0
 13 20  1  0
 20 21  2  0
 10 21  1  0
 21 22  1  0
  8 22  1  0
  1 23  1  0
  1 24  1  0
  1 25  1  0
  2 26  1  0
  2 27  1  0
  3 28  1  0
  3 29  1  0
  4 30  1  0
  4 31  1  0
  9 32  1  0
  9 33  1  0
 11 34  1  0
 12 35  1  0
 14 36  1  0
 15 37  1  0
 20 38  1  0
 22 39  1  0
 22 40  1  0
 18 41  1  0
 19 42  1  0
M  END
> <Name>
CHEMBL1808627

> <ALogP>
1.518

> <Molecular_Weight>
324.3953

> <Num_H_Acceptors>
4

> <Num_H_Donors>
2

> <Num_RotatableBonds>
6

> <FormalCharge>
0

$$$$
CHEMBL482765
  SciTegic01131515592D

 36 36  0  0  0  0            999 V2000
    6.4855   -8.2648    0.0000 C   0  0
    5.1873   -7.5117    0.0000 C   0  0
    5.1894   -6.0109    0.0000 C   0  0
    3.8912   -5.2578    0.0000 C   0  0
    2.8509   -5.8560    0.0000 S   0  0
    3.8933   -3.7570    0.0000 S   0  0
    2.5951   -3.0039    0.0000 C   0  0
    2.5973   -1.5031    0.0000 C   0  0
    3.6375   -0.9049    0.0000 O   0  0
    1.2990   -0.7500    0.0000 C   0  0
    1.2990    0.7500    0.0000 C   0  0
    0.0000    1.5000    0.0000 C   0  0
   -1.2990    0.7500    0.0000 C   0  0
   -2.6003    1.4977    0.0000 N   0  0
   -3.8990    0.7455    0.0000 C   0  0
   -3.8969   -0.4545    0.0000 O   0  0
   -5.2003    1.4932    0.0000 C   0  0
   -1.2990   -0.7500    0.0000 C   0  0
    0.0000   -1.5000    0.0000 C   0  0
    6.4840   -9.2648    0.0000 H   0  0
    7.3524   -7.7663    0.0000 H   0  0
    7.3507   -8.7662    0.0000 H   0  0
    4.3204   -8.0102    0.0000 H   0  0
    4.3220   -7.0104    0.0000 H   0  0
    6.0563   -5.5124    0.0000 H   0  0
    5.1913   -5.0109    0.0000 H   0  0
    1.7282   -3.5024    0.0000 H   0  0
    2.5932   -4.0039    0.0000 H   0  0
    2.1651    1.2500    0.0000 H   0  0
    0.0000    2.5000    0.0000 H   0  0
   -6.0656    0.9920    0.0000 H   0  0
   -6.0671    1.9918    0.0000 H   0  0
   -5.2021    2.4932    0.0000 H   0  0
   -2.1651   -1.2500    0.0000 H   0  0
    0.0000   -2.5000    0.0000 H   0  0
   -2.6021    2.4977    0.0000 H   0  0
  1  2  1  0
  2  3  1  0
  3  4  1  0
  4  5  2  0
  4  6  1  0
  6  7  1  0
  7  8  1  0
  8  9  2  0
  8 10  1  0
 10 11  2  0
 11 12  1  0
 12 13  2  0
 13 14  1  0
 14 15  1  0
 15 16  2  0
 15 17  1  0
 13 18  1  0
 18 19  2  0
 10 19  1  0
  1 20  1  0
  1 21  1  0
  1 22  1  0
  2 23  1  0
  2 24  1  0
  3 25  1  0
  3 26  1  0
  7 27  1  0
  7 28  1  0
 11 29  1  0
 12 30  1  0
 17 31  1  0
 17 32  1  0
 17 33  1  0
 18 34  1  0
 19 35  1  0
 14 36  1  0
M  END
> <Name>
CHEMBL482765

> <ALogP>
2.977

> <Molecular_Weight>
295.42028

> <Num_H_Acceptors>
4

> <Num_H_Donors>
1

> <Num_RotatableBonds>
7

> <FormalCharge>
0

$$$$
CHEMBL515906
  SciTegic01131515592D

 40 42  0  0  0  0            999 V2000
   -6.2413    5.9820    0.0000 O   0  0
   -4.9380    5.2378    0.0000 N   0  0
   -4.9300    3.7369    0.0000 C   0  0
   -5.9662    3.1317    0.0000 O   0  0
   -3.6267    2.9927    0.0000 C   0  0
   -3.6187    1.4919    0.0000 C   0  0
   -2.3155    0.7475    0.0000 C   0  0
   -2.3155   -0.7475    0.0000 C   0  0
   -1.0028   -1.5132    0.0000 C   0  0
    0.2917   -0.7475    0.0000 C   0  0
    1.7138   -1.2033    0.0000 N   0  0
    2.5889    0.0182    0.0000 C   0  0
    4.0872    0.0351    0.0000 C   0  0
    4.8532   -1.2555    0.0000 C   0  0
    6.3539   -1.2384    0.0000 C   0  0
    7.1187   -2.5288    0.0000 C   0  0
    8.6186   -2.5118    0.0000 C   0  0
    9.3537   -1.2043    0.0000 C   0  0
    8.5890    0.0862    0.0000 C   0  0
    7.0891    0.0691    0.0000 C   0  0
    1.7138    1.2033    0.0000 N   0  0
    0.2917    0.7475    0.0000 C   0  0
   -1.0028    1.5132    0.0000 C   0  0
   -2.7632    3.4971    0.0000 H   0  0
   -4.4822    0.9875    0.0000 H   0  0
   -3.1826   -1.2456    0.0000 H   0  0
   -0.9997   -2.5132    0.0000 H   0  0
    4.5770    0.9069    0.0000 H   0  0
    3.5772    0.8953    0.0000 H   0  0
    4.3634   -2.1273    0.0000 H   0  0
    5.3631   -2.1157    0.0000 H   0  0
    6.6286   -3.4005    0.0000 H   0  0
    9.1284   -3.3720    0.0000 H   0  0
   10.3537   -1.1929    0.0000 H   0  0
    9.0791    0.9578    0.0000 H   0  0
    6.5792    0.9293    0.0000 H   0  0
   -0.9997    2.5132    0.0000 H   0  0
   -6.2467    6.9820    0.0000 H   0  0
   -4.0746    5.7421    0.0000 H   0  0
    2.0279   -2.1527    0.0000 H   0  0
  1  2  1  0
  2  3  1  0
  3  4  2  0
  3  5  1  0
  5  6  2  0
  6  7  1  0
  7  8  2  0
  8  9  1  0
  9 10  2  0
 10 11  1  0
 11 12  1  0
 12 13  1  0
 13 14  1  0
 14 15  1  0
 15 16  2  0
 16 17  1  0
 17 18  2  0
 18 19  1  0
 19 20  2  0
 15 20  1  0
 12 21  2  0
 21 22  1  0
 10 22  1  0
 22 23  2  0
  7 23  1  0
  5 24  1  0
  6 25  1  0
  8 26  1  0
  9 27  1  0
 13 28  1  0
 13 29  1  0
 14 30  1  0
 14 31  1  0
 16 32  1  0
 17 33  1  0
 18 34  1  0
 19 35  1  0
 20 36  1  0
 23 37  1  0
  1 38  1  0
  2 39  1  0
 11 40  1  0
M  STY  1   1 DAT
M  SAL   1  1  11
M  SDT   1 MRV_IMPLICIT_H
M  SDD   1     0.0000    0.0000    DR    ALL  0       0
M  SED   1 IMPL_H1
M  END
> <Name>
CHEMBL515906

> <ALogP>
3.244

> <Molecular_Weight>
307.34648

> <Num_H_Acceptors>
3

> <Num_H_Donors>
3

> <Num_RotatableBonds>
5

> <FormalCharge>
0

$$$$
CHEMBL259127
  SciTegic01131515592D

 51 54  0  0  0  0            999 V2000
    2.5973   -1.5031    0.0000 N   0  0
    1.2990   -0.7500    0.0000 C   0  0
    1.2990    0.7500    0.0000 C   0  0
    0.0000    1.5000    0.0000 C   0  0
   -1.2990    0.7500    0.0000 C   0  0
   -1.2990   -0.7500    0.0000 C   0  0
    0.0000   -1.5000    0.0000 C   0  0
    0.0031   -3.0008    0.0000 N   0  0
    1.3039   -3.7494    0.0000 C   0  0
    2.3421   -3.1476    0.0000 O   0  0
    1.3070   -5.2502    0.0000 C   0  0
    2.6060   -6.0003    0.0000 C   0  0
    2.6061   -7.5003    0.0000 C   0  0
    1.3071   -8.2503    0.0000 C   0  0
    1.3071   -9.7511    0.0000 C   0  0
    2.6064  -10.5023    0.0000 S   0  0
    2.6064  -12.0032    0.0000 C   0  0
    1.3059  -12.7506    0.0000 N   0  0
    1.3029  -14.2506    0.0000 C   0  0
    2.6004  -15.0032    0.0000 C   0  0
    3.9009  -14.2559    0.0000 C   0  0
    4.9390  -14.8579    0.0000 O   0  0
    3.9039  -12.7559    0.0000 N   0  0
    0.0017  -14.9984    0.0000 C   0  0
   -1.2972  -14.2479    0.0000 C   0  0
   -2.5965  -14.9974    0.0000 C   0  0
   -2.5971  -16.4974    0.0000 C   0  0
   -1.2984  -17.2479    0.0000 C   0  0
    0.0009  -16.4985    0.0000 C   0  0
    0.0080   -7.5003    0.0000 C   0  0
    0.0080   -6.0003    0.0000 C   0  0
    2.1651    1.2500    0.0000 H   0  0
    0.0000    2.5000    0.0000 H   0  0
   -2.1651    1.2500    0.0000 H   0  0
   -2.1651   -1.2500    0.0000 H   0  0
    3.4721   -5.5003    0.0000 H   0  0
    3.4721   -8.0003    0.0000 H   0  0
    0.4409  -10.2509    0.0000 H   0  0
    1.3067  -10.7511    0.0000 H   0  0
    2.5984  -16.0032    0.0000 H   0  0
   -1.2968  -13.2479    0.0000 H   0  0
   -3.4623  -14.4970    0.0000 H   0  0
   -3.4634  -16.9970    0.0000 H   0  0
   -1.2988  -18.2479    0.0000 H   0  0
    0.8667  -16.9989    0.0000 H   0  0
   -0.8580   -8.0004    0.0000 H   0  0
   -0.8581   -5.5004    0.0000 H   0  0
    2.5958   -2.5031    0.0000 H   0  0
    3.4642   -1.0046    0.0000 H   0  0
   -0.8621   -3.5023    0.0000 H   0  0
    4.7710  -12.2576    0.0000 H   0  0
  1  2  1  0
  2  3  2  0
  3  4  1  0
  4  5  2  0
  5  6  1  0
  6  7  2  0
  2  7  1  0
  7  8  1  0
  8  9  1  0
  9 10  2  0
  9 11  1  0
 11 12  2  0
 12 13  1  0
 13 14  2  0
 14 15  1  0
 15 16  1  0
 16 17  1  0
 17 18  2  0
 18 19  1  0
 19 20  2  0
 20 21  1  0
 21 22  2  0
 21 23  1  0
 17 23  1  0
 19 24  1  0
 24 25  2  0
 25 26  1  0
 26 27  2  0
 27 28  1  0
 28 29  2  0
 24 29  1  0
 14 30  1  0
 30 31  2  0
 11 31  1  0
  3 32  1  0
  4 33  1  0
  5 34  1  0
  6 35  1  0
 12 36  1  0
 13 37  1  0
 15 38  1  0
 15 39  1  0
 20 40  1  0
 25 41  1  0
 26 42  1  0
 27 43  1  0
 28 44  1  0
 29 45  1  0
 30 46  1  0
 31 47  1  0
  1 48  1  0
  1 49  1  0
  8 50  1  0
 23 51  1  0
M  END
> <Name>
CHEMBL259127

> <ALogP>
3.824

> <Molecular_Weight>
428.5062

> <Num_H_Acceptors>
5

> <Num_H_Donors>
3

> <Num_RotatableBonds>
6

> <FormalCharge>
0

$$$$
CHEMBL95842
  SciTegic01131515592D

 46 47  0  0  0  0            999 V2000
    3.8973    0.7486    0.0000 O   0  0
    3.8968   -0.7523    0.0000 N   0  0
    2.5973   -1.5031    0.0000 C   0  0
    1.2960   -0.7553    0.0000 C   0  0
    1.2919    0.7455    0.0000 C   0  0
   -0.0094    1.4932    0.0000 C   0  0
   -0.0134    2.9940    0.0000 C   0  0
   -1.3147    3.7418    0.0000 C   0  0
   -1.3187    5.2426    0.0000 C   0  0
   -2.6200    5.9903    0.0000 C   0  0
   -2.6233    7.1903    0.0000 O   0  0
   -3.6578    5.3879    0.0000 O   0  5
    2.6013   -3.0039    0.0000 C   0  0
    3.9008   -3.7531    0.0000 C   0  0
    3.9018   -5.2531    0.0000 C   0  0
    2.6032   -6.0039    0.0000 C   0  0
    1.3037   -5.2547    0.0000 C   0  0
    1.3027   -3.7547    0.0000 C   0  0
    2.6041   -7.5047    0.0000 C   0  0
    3.9025   -8.2560    0.0000 C   0  0
    3.9010   -9.7560    0.0000 C   0  0
    2.6013  -10.5048    0.0000 C   0  0
    1.3029   -9.7535    0.0000 C   0  0
    1.3044   -8.2535    0.0000 C   0  0
    0.4311   -1.2574    0.0000 H   0  0
    1.2982   -1.7553    0.0000 H   0  0
    2.1568    1.2475    0.0000 H   0  0
    1.2897    1.7455    0.0000 H   0  0
   -0.8742    0.9912    0.0000 H   0  0
   -0.8767    1.9910    0.0000 H   0  0
    0.8514    3.4961    0.0000 H   0  0
   -0.0156    3.9940    0.0000 H   0  0
   -2.1795    3.2397    0.0000 H   0  0
   -2.1820    4.2396    0.0000 H   0  0
   -0.4539    5.7446    0.0000 H   0  0
   -1.3210    6.2426    0.0000 H   0  0
    4.7665   -3.2526    0.0000 H   0  0
    4.7681   -5.7526    0.0000 H   0  0
    0.4380   -5.7553    0.0000 H   0  0
    0.4364   -3.2553    0.0000 H   0  0
    4.7690   -7.7569    0.0000 H   0  0
    4.7666  -10.2569    0.0000 H   0  0
    2.6003  -11.5048    0.0000 H   0  0
    0.4364  -10.2527    0.0000 H   0  0
    0.4388   -7.7527    0.0000 H   0  0
    4.7631    1.2488    0.0000 H   0  0
  1  2  1  0
  2  3  2  0
  3  4  1  0
  4  5  1  0
  5  6  1  0
  6  7  1  0
  7  8  1  0
  8  9  1  0
  9 10  1  0
 10 11  2  0
 10 12  1  0
  3 13  1  0
 13 14  2  0
 14 15  1  0
 15 16  2  0
 16 17  1  0
 17 18  2  0
 13 18  1  0
 16 19  1  0
 19 20  2  0
 20 21  1  0
 21 22  2  0
 22 23  1  0
 23 24  2  0
 19 24  1  0
  4 25  1  0
  4 26  1  0
  5 27  1  0
  5 28  1  0
  6 29  1  0
  6 30  1  0
  7 31  1  0
  7 32  1  0
  8 33  1  0
  8 34  1  0
  9 35  1  0
  9 36  1  0
 14 37  1  0
 15 38  1  0
 17 39  1  0
 18 40  1  0
 20 41  1  0
 21 42  1  0
 22 43  1  0
 23 44  1  0
 24 45  1  0
  1 46  1  0
M  CHG  1  12  -1
M  END
> <Name>
CHEMBL95842

> <ALogP>
3.351

> <Molecular_Weight>
324.39358

> <Num_H_Acceptors>
4

> <Num_H_Donors>
1

> <Num_RotatableBonds>
9

> <FormalCharge>
-1

$$$$
CHEMBL1643315
  SciTegic01131515592D

 74 77  0  0  0  0            999 V2000
   -1.3059   -0.3624    0.0000 N   0  0
   -2.7834   -0.0987    0.0000 C   0  0
   -3.2964    1.3108    0.0000 C   0  0
   -4.7736    1.5713    0.0000 C   0  0
   -5.7378    0.4222    0.0000 C   0  0
   -5.2247   -0.9873    0.0000 C   0  0
   -3.7475   -1.2478    0.0000 C   0  0
   -3.2313   -2.6571    0.0000 N   0  0
   -1.7529   -2.9156    0.0000 C   0  0
   -0.9832   -1.9950    0.0000 O   0  0
   -1.2367   -4.3248    0.0000 C   0  0
    0.2417   -4.5833    0.0000 C   0  0
    0.7579   -5.9926    0.0000 C   0  0
    2.2351   -6.2531    0.0000 C   0  0
    2.7482   -7.6626    0.0000 C   0  0
    1.7841   -8.8117    0.0000 C   0  0
    0.3068   -8.5513    0.0000 C   0  0
   -0.2062   -7.1418    0.0000 C   0  0
    2.2974  -10.2219    0.0000 C   0  0
    1.3323  -11.3714    0.0000 N   0  0
   -0.1458  -11.1113    0.0000 C   0  0
   -1.1108  -12.2607    0.0000 C   0  0
   -2.5889  -12.0006    0.0000 C   0  0
   -2.5539  -13.4798    0.0000 C   0  0
   -3.8535  -14.2290    0.0000 C   0  0
   -5.1520  -13.4781    0.0000 O   0  0
   -5.1510  -11.9781    0.0000 C   0  0
   -3.8515  -11.2290    0.0000 C   0  0
    3.7755  -10.4821    0.0000 C   0  0
    4.1859  -11.6097    0.0000 O   0  0
    4.7405   -9.3326    0.0000 N   0  0
    6.2186   -9.5927    0.0000 C   0  0
    7.1849   -8.4453    0.0000 C   0  0
    8.6616   -8.7083    0.0000 C   0  0
    9.1723  -10.1187    0.0000 C   0  0
    8.2062  -11.2662    0.0000 C   0  0
    6.7294  -11.0032    0.0000 C   0  0
   10.6499  -10.3818    0.0000 C   0  0
   11.4233   -9.4644    0.0000 F   0  0
   11.0580  -11.5103    0.0000 F   0  0
   11.8312  -10.5928    0.0000 F   0  0
   -2.6536    2.0769    0.0000 H   0  0
   -5.1156    2.5110    0.0000 H   0  0
   -6.7226    0.5959    0.0000 H   0  0
   -5.8675   -1.7534    0.0000 H   0  0
   -1.8782   -5.0920    0.0000 H   0  0
    0.8831   -3.8162    0.0000 H   0  0
    2.8779   -5.4871    0.0000 H   0  0
    3.7330   -7.8363    0.0000 H   0  0
   -0.3359   -9.3173    0.0000 H   0  0
   -1.1910   -6.9682    0.0000 H   0  0
    2.6394  -11.1616    0.0000 H   0  0
    0.4969  -10.3451    0.0000 H   0  0
   -0.4878  -10.1716    0.0000 H   0  0
   -0.1260  -12.4345    0.0000 H   0  0
   -0.7688  -13.2004    0.0000 H   0  0
   -2.5873  -11.0006    0.0000 H   0  0
   -1.7055  -12.9506    0.0000 H   0  0
   -2.5649  -14.4798    0.0000 H   0  0
   -3.8764  -13.2293    0.0000 H   0  0
   -4.7313  -14.7079    0.0000 H   0  0
   -5.1268  -10.9784    0.0000 H   0  0
   -6.0054  -12.4978    0.0000 H   0  0
   -3.8869  -12.2284    0.0000 H   0  0
   -4.7223  -10.7374    0.0000 H   0  0
    6.8445   -7.5051    0.0000 H   0  0
    9.3057   -7.9434    0.0000 H   0  0
    8.5466  -12.2064    0.0000 H   0  0
    6.0853  -11.7682    0.0000 H   0  0
   -0.9652   -1.3026    0.0000 H   0  0
   -0.6617    0.4025    0.0000 H   0  0
   -3.8728   -3.4242    0.0000 H   0  0
    1.6744  -12.3111    0.0000 H   0  0
    4.3985   -8.3930    0.0000 H   0  0
  1  2  1  0
  2  3  2  0
  3  4  1  0
  4  5  2  0
  5  6  1  0
  6  7  2  0
  2  7  1  0
  7  8  1  0
  8  9  1  0
  9 10  2  0
  9 11  1  0
 11 12  2  0
 12 13  1  0
 13 14  2  0
 14 15  1  0
 15 16  2  0
 16 17  1  0
 17 18  2  0
 13 18  1  0
 16 19  1  0
 19 20  1  0
 20 21  1  0
 21 22  1  0
 22 23  1  0
 23 24  1  0
 24 25  1  0
 25 26  1  0
 26 27  1  0
 27 28  1  0
 23 28  1  0
 19 29  1  0
 29 30  2  0
 29 31  1  0
 31 32  1  0
 32 33  2  0
 33 34  1  0
 34 35  2  0
 35 36  1  0
 36 37  2  0
 32 37  1  0
 35 38  1  0
 38 39  1  0
 38 40  1  0
 38 41  1  0
  3 42  1  0
  4 43  1  0
  5 44  1  0
  6 45  1  0
 11 46  1  0
 12 47  1  0
 14 48  1  0
 15 49  1  0
 17 50  1  0
 18 51  1  0
 19 52  1  0
 21 53  1  0
 21 54  1  0
 22 55  1  0
 22 56  1  0
 23 57  1  0
 24 58  1  0
 24 59  1  0
 25 60  1  0
 25 61  1  0
 27 62  1  0
 27 63  1  0
 28 64  1  0
 28 65  1  0
 33 66  1  0
 34 67  1  0
 36 68  1  0
 37 69  1  0
  1 70  1  0
  1 71  1  0
  8 72  1  0
 20 73  1  0
 31 74  1  0
M  END
> <Name>
CHEMBL1643315

> <ALogP>
4.395

> <Molecular_Weight>
566.61392

> <Num_H_Acceptors>
5

> <Num_H_Donors>
4

> <Num_RotatableBonds>
11

> <FormalCharge>
0

$$$$
CHEMBL520601
  SciTegic01131515592D

 51 54  0  0  0  0            999 V2000
    2.5973   -1.5031    0.0000 N   0  0
    1.2990   -0.7500    0.0000 C   0  0
    1.2990    0.7500    0.0000 C   0  0
    0.0000    1.5000    0.0000 C   0  0
   -1.2990    0.7500    0.0000 C   0  0
   -1.2990   -0.7500    0.0000 C   0  0
    0.0000   -1.5000    0.0000 C   0  0
    0.0031   -3.0008    0.0000 N   0  0
    1.3039   -3.7494    0.0000 C   0  0
    2.3421   -3.1476    0.0000 O   0  0
    1.3070   -5.2502    0.0000 C   0  0
    2.6060   -6.0003    0.0000 C   0  0
    2.6061   -7.5003    0.0000 C   0  0
    1.3071   -8.2503    0.0000 C   0  0
    1.3071   -9.7511    0.0000 C   0  0
    2.6064  -10.5023    0.0000 N   0  0
    2.6064  -12.0032    0.0000 C   0  0
    3.9039  -12.7559    0.0000 N   0  0
    3.9009  -14.2559    0.0000 C   0  0
    2.6004  -15.0032    0.0000 C   0  0
    1.3029  -14.2506    0.0000 C   0  0
    1.3059  -12.7506    0.0000 N   0  0
    0.0017  -14.9984    0.0000 C   0  0
   -1.3475  -14.3725    0.0000 O   0  0
   -2.3552  -15.4836    0.0000 N   0  0
   -1.6099  -16.7854    0.0000 C   0  0
   -2.2242  -18.1519    0.0000 C   0  0
   -3.7172  -18.3043    0.0000 O   0  0
   -0.1415  -16.4788    0.0000 C   0  0
    0.0080   -7.5003    0.0000 C   0  0
    0.0080   -6.0003    0.0000 C   0  0
    2.1651    1.2500    0.0000 H   0  0
    0.0000    2.5000    0.0000 H   0  0
   -2.1651    1.2500    0.0000 H   0  0
   -2.1651   -1.2500    0.0000 H   0  0
    3.4721   -5.5003    0.0000 H   0  0
    3.4721   -8.0003    0.0000 H   0  0
    0.4409  -10.2509    0.0000 H   0  0
    1.3067  -10.7511    0.0000 H   0  0
    4.7660  -14.7576    0.0000 H   0  0
    2.5984  -16.0032    0.0000 H   0  0
   -1.6390  -18.9628    0.0000 H   0  0
   -2.6338  -19.0641    0.0000 H   0  0
    0.6032  -17.1461    0.0000 H   0  0
   -0.8580   -8.0004    0.0000 H   0  0
   -0.8581   -5.5004    0.0000 H   0  0
    2.5958   -2.5031    0.0000 H   0  0
    3.4642   -1.0046    0.0000 H   0  0
   -0.8621   -3.5023    0.0000 H   0  0
    3.4726  -10.0026    0.0000 H   0  0
   -4.1273  -19.2164    0.0000 H   0  0
  1  2  1  0
  2  3  2  0
  3  4  1  0
  4  5  2  0
  5  6  1  0
  6  7  2  0
  2  7  1  0
  7  8  1  0
  8  9  1  0
  9 10  2  0
  9 11  1  0
 11 12  2  0
 12 13  1  0
 13 14  2  0
 14 15  1  0
 15 16  1  0
 16 17  1  0
 17 18  2  0
 18 19  1  0
 19 20  2  0
 20 21  1  0
 21 22  2  0
 17 22  1  0
 21 23  1  0
 23 24  1  0
 24 25  1  0
 25 26  2  0
 26 27  1  0
 27 28  1  0
 26 29  1  0
 23 29  2  0
 14 30  1  0
 30 31  2  0
 11 31  1  0
  3 32  1  0
  4 33  1  0
  5 34  1  0
  6 35  1  0
 12 36  1  0
 13 37  1  0
 15 38  1  0
 15 39  1  0
 19 40  1  0
 20 41  1  0
 27 42  1  0
 27 43  1  0
 29 44  1  0
 30 45  1  0
 31 46  1  0
  1 47  1  0
  1 48  1  0
  8 49  1  0
 16 50  1  0
 28 51  1  0
M  END
> <Name>
CHEMBL520601

> <ALogP>
1.833

> <Molecular_Weight>
416.4326

> <Num_H_Acceptors>
7

> <Num_H_Donors>
4

> <Num_RotatableBonds>
7

> <FormalCharge>
0

$$$$
CHEMBL2158744
  SciTegic01131515592D

 78 79  0  0  1  0            999 V2000
    0.0981  -12.2369    0.0000 C   0  0
    0.5392  -10.8024    0.0000 C   0  0
    1.7089  -10.5347    0.0000 O   0  0
   -0.4820   -9.7025    0.0000 S   0  0
   -0.0409   -8.2679    0.0000 C   0  0
   -1.0620   -7.1680    0.0000 C   0  0
   -0.6209   -5.7335    0.0000 C   0  0
   -1.6420   -4.6336    0.0000 C   0  0
   -1.2009   -3.1990    0.0000 C   0  0
   -2.1804   -2.0896    0.0000 C   0  0  2  0  0  0
   -0.8631   -1.3401    0.0000 N   0  0
    0.4315   -2.0896    0.0000 C   0  0
    0.4270   -3.2896    0.0000 O   0  0
    1.7489   -1.3401    0.0000 C   0  0  1  0  0  0
    3.2025   -1.7943    0.0000 C   0  0
    4.0429   -0.5905    0.0000 C   0  0
    3.2025    0.5905    0.0000 C   0  0
    1.7489    0.1363    0.0000 N   0  0
    0.4315    0.8858    0.0000 C   0  0
   -0.6058    0.2825    0.0000 O   0  0
    0.4315    2.3848    0.0000 C   0  0  2  0  0  0
    0.3959    3.8648    0.0000 C   0  0
   -0.9031    4.6165    0.0000 C   0  0
   -0.9025    6.1174    0.0000 O   0  0
   -2.2015    6.8691    0.0000 C   0  0
   -2.2009    8.3699    0.0000 C   0  0
   -3.4999    9.1217    0.0000 S   0  0
   -3.4993   10.6225    0.0000 C   0  0
   -2.4596   11.2218    0.0000 O   0  0
   -4.7983   11.3742    0.0000 C   0  0
   -0.8631    3.1344    0.0000 N   0  0
   -2.1804    2.3848    0.0000 C   0  0
   -3.2178    2.9881    0.0000 O   0  0
   -2.1804    0.8858    0.0000 C   0  0
   -0.9141    1.6531    0.0000 C   0  0
   -2.2210   -0.5947    0.0000 C   0  0
   -3.4978    0.1363    0.0000 N   0  0
   -3.4978   -1.3401    0.0000 C   0  0
   -4.5351   -1.9433    0.0000 O   0  0
    0.7784  -12.9698    0.0000 H   0  0
   -0.1963  -13.1926    0.0000 H   0  0
   -0.8767  -12.4600    0.0000 H   0  0
    0.6399   -9.0005    0.0000 H   0  0
    0.9339   -8.0449    0.0000 H   0  0
   -1.7427   -6.4355    0.0000 H   0  0
   -2.0368   -7.3911    0.0000 H   0  0
   -0.3265   -4.7778    0.0000 H   0  0
    0.3539   -5.5104    0.0000 H   0  0
   -2.3227   -3.9010    0.0000 H   0  0
   -2.6168   -4.8566    0.0000 H   0  0
   -0.5202   -3.9316    0.0000 H   0  0
   -0.2261   -2.9759    0.0000 H   0  0
   -3.0587   -2.5677    0.0000 H   0  0
    1.8559   -2.3343    0.0000 H   0  0
    2.5337   -2.5377    0.0000 H   0  0
    4.1864   -1.9732    0.0000 H   0  0
    4.5249    0.2856    0.0000 H   0  0
    4.5329   -1.4623    0.0000 H   0  0
    4.1857    0.7733    0.0000 H   0  0
    2.5302    1.3308    0.0000 H   0  0
    1.2847    1.8632    0.0000 H   0  0
    1.2623    4.3642    0.0000 H   0  0
    0.3968    4.8648    0.0000 H   0  0
   -1.7695    4.1172    0.0000 H   0  0
   -1.7688    5.1170    0.0000 H   0  0
   -3.0679    6.3697    0.0000 H   0  0
   -2.2023    5.8691    0.0000 H   0  0
   -1.3345    8.8693    0.0000 H   0  0
   -2.2000    9.3699    0.0000 H   0  0
   -4.7979   12.3742    0.0000 H   0  0
   -5.6647   10.8749    0.0000 H   0  0
   -5.6640   11.8747    0.0000 H   0  0
   -0.9106    2.6531    0.0000 H   0  0
   -0.0464    2.1502    0.0000 H   0  0
   -0.0497    1.1503    0.0000 H   0  0
   -1.3569   -1.0980    0.0000 H   0  0
   -1.3531   -0.0979    0.0000 H   0  0
   -3.0888   -1.0916    0.0000 H   0  0
  1  2  1  0
  2  3  2  0
  2  4  1  0
  4  5  1  0
  5  6  1  0
  6  7  1  0
  7  8  1  0
  8  9  1  0
 10  9  1  0
 10 11  1  0
 11 12  1  0
 12 13  2  0
 12 14  1  0
 14 15  1  0
 15 16  1  0
 16 17  1  0
 17 18  1  0
 14 18  1  0
 18 19  1  0
 19 20  2  0
 19 21  1  0
 21 22  1  0
 22 23  1  0
 23 24  1  0
 24 25  1  0
 25 26  1  0
 26 27  1  0
 27 28  1  0
 28 29  2  0
 28 30  1  0
 21 31  1  0
 31 32  1  0
 32 33  2  0
 32 34  1  0
 34 35  1  0
 34 36  1  0
 34 37  1  0
 37 38  1  0
 10 38  1  0
 38 39  2  0
  1 40  1  0
  1 41  1  0
  1 42  1  0
  5 43  1  0
  5 44  1  0
  6 45  1  0
  6 46  1  0
  7 47  1  0
  7 48  1  0
  8 49  1  0
  8 50  1  0
  9 51  1  0
  9 52  1  0
 10 53  1  6
 14 54  1  1
 15 55  1  0
 15 56  1  0
 16 57  1  0
 16 58  1  0
 17 59  1  0
 17 60  1  0
 21 61  1  6
 22 62  1  0
 22 63  1  0
 23 64  1  0
 23 65  1  0
 25 66  1  0
 25 67  1  0
 26 68  1  0
 26 69  1  0
 30 70  1  0
 30 71  1  0
 30 72  1  0
 35 73  1  0
 35 74  1  0
 35 75  1  0
 36 76  1  0
 36 77  1  0
 36 78  1  0
M  END
> <Name>
CHEMBL2158744

> <ALogP>
0.39

> <Molecular_Weight>
586.76427

> <Num_H_Acceptors>
9

> <Num_H_Donors>
3

> <Num_RotatableBonds>
14

> <FormalCharge>
0

$$$$
CHEMBL497123
  SciTegic01131515592D

 34 35  0  0  0  0            999 V2000
    2.5951   -3.0039    0.0000 C   0  0
    2.5973   -1.5031    0.0000 O   0  0
    1.2990   -0.7500    0.0000 C   0  0
    1.2990    0.7500    0.0000 C   0  0
    0.0000    1.5000    0.0000 C   0  0
   -1.2990    0.7500    0.0000 C   0  0
   -2.5988    1.5004    0.0000 C   0  0
   -2.5998    3.0012    0.0000 N   0  0
   -3.8995    3.7516    0.0000 C   0  0
   -4.9385    3.1513    0.0000 O   0  0
   -3.9005    5.2525    0.0000 C   0  0
   -5.1128    6.1140    0.0000 C   0  0
   -4.6472    7.5399    0.0000 C   0  0
   -3.1472    7.5378    0.0000 C   0  0
   -2.6857    6.1106    0.0000 S   0  0
   -2.2623    8.7468    0.0000 C   0  0
   -2.7469    9.8446    0.0000 O   0  0
   -0.7702    8.5857    0.0000 C   0  0
   -0.0615    9.5540    0.0000 F   0  0
    0.4228    8.4563    0.0000 F   0  0
   -0.2856    7.4879    0.0000 F   0  0
   -1.2990   -0.7500    0.0000 C   0  0
    0.0000   -1.5000    0.0000 C   0  0
    3.4601   -3.5057    0.0000 H   0  0
    1.7282   -3.5024    0.0000 H   0  0
    2.5932   -4.0039    0.0000 H   0  0
    2.1651    1.2500    0.0000 H   0  0
    0.0000    2.5000    0.0000 H   0  0
   -3.4651    2.0000    0.0000 H   0  0
   -3.4647    1.0001    0.0000 H   0  0
   -6.0624    5.8007    0.0000 H   0  0
   -5.2339    8.3498    0.0000 H   0  0
   -2.1651   -1.2500    0.0000 H   0  0
    0.0000   -2.5000    0.0000 H   0  0
  1  2  1  0
  2  3  1  0
  3  4  2  0
  4  5  1  0
  5  6  2  0
  6  7  1  0
  7  8  1  0
  8  9  1  0
  9 10  2  0
  9 11  1  0
 11 12  2  0
 12 13  1  0
 13 14  2  0
 14 15  1  0
 11 15  1  0
 14 16  1  0
 16 17  2  0
 16 18  1  0
 18 19  1  0
 18 20  1  0
 18 21  1  0
  6 22  1  0
 22 23  2  0
  3 23  1  0
  1 24  1  0
  1 25  1  0
  1 26  1  0
  4 27  1  0
  5 28  1  0
  7 29  1  0
  7 30  1  0
 12 31  1  0
 13 32  1  0
 22 33  1  0
 23 34  1  0
M  END
> <Name>
CHEMBL497123

> <ALogP>
3.678

> <Molecular_Weight>
343.32088

> <Num_H_Acceptors>
3

> <Num_H_Donors>
1

> <Num_RotatableBonds>
6

> <FormalCharge>
0

$$$$
CHEMBL487615
  SciTegic01131515592D

 31 31  0  0  0  0            999 V2000
    6.4855   -8.2648    0.0000 C   0  0
    5.1873   -7.5117    0.0000 C   0  0
    5.1894   -6.0109    0.0000 N   0  0
    3.8912   -5.2578    0.0000 C   0  0
    2.8509   -5.8560    0.0000 S   0  0
    3.8933   -3.7570    0.0000 S   0  0
    2.5951   -3.0039    0.0000 C   0  0
    2.5973   -1.5031    0.0000 C   0  0
    3.6375   -0.9049    0.0000 O   0  0
    1.2990   -0.7500    0.0000 C   0  0
    1.2990    0.7500    0.0000 C   0  0
    0.0000    1.5000    0.0000 C   0  0
   -1.2990    0.7500    0.0000 C   0  0
   -2.6003    1.4977    0.0000 O   0  0
   -3.8990    0.7455    0.0000 C   0  0
   -1.2990   -0.7500    0.0000 C   0  0
    0.0000   -1.5000    0.0000 C   0  0
    6.4840   -9.2648    0.0000 H   0  0
    7.3524   -7.7663    0.0000 H   0  0
    7.3507   -8.7662    0.0000 H   0  0
    4.3204   -8.0102    0.0000 H   0  0
    4.3220   -7.0104    0.0000 H   0  0
    1.7282   -3.5024    0.0000 H   0  0
    2.5932   -4.0039    0.0000 H   0  0
    2.1651    1.2500    0.0000 H   0  0
    0.0000    2.5000    0.0000 H   0  0
   -4.7661    1.2437    0.0000 H   0  0
   -3.8973   -0.2545    0.0000 H   0  0
   -4.7641    0.2438    0.0000 H   0  0
   -2.1651   -1.2500    0.0000 H   0  0
    0.0000   -2.5000    0.0000 H   0  0
  1  2  1  0
  2  3  1  0
  3  4  1  0
  4  5  2  0
  4  6  1  0
  6  7  1  0
  7  8  1  0
  8  9  2  0
  8 10  1  0
 10 11  2  0
 11 12  1  0
 12 13  2  0
 13 14  1  0
 14 15  1  0
 13 16  1  0
 16 17  2  0
 10 17  1  0
  1 18  1  0
  1 19  1  0
  1 20  1  0
  2 21  1  0
  2 22  1  0
  7 23  1  0
  7 24  1  0
 11 25  1  0
 12 26  1  0
 15 27  1  0
 15 28  1  0
 15 29  1  0
 16 30  1  0
 17 31  1  0
M  END
> <Name>
CHEMBL487615

> <ALogP>
3.257

> <Molecular_Weight>
269.383

> <Num_H_Acceptors>
4

> <Num_H_Donors>
1

> <Num_RotatableBonds>
7

> <FormalCharge>
0

$$$$
CHEMBL518961
  SciTegic01131515592D

 46 47  0  0  0  0            999 V2000
    6.4855   -8.2648    0.0000 C   0  0
    5.1873   -7.5117    0.0000 C   0  0
    5.1894   -6.0109    0.0000 S   0  0
    3.8912   -5.2578    0.0000 C   0  0
    2.8509   -5.8560    0.0000 S   0  0
    3.8933   -3.7570    0.0000 S   0  0
    2.5951   -3.0039    0.0000 C   0  0
    2.5973   -1.5031    0.0000 C   0  0
    3.6375   -0.9049    0.0000 O   0  0
    1.2990   -0.7500    0.0000 C   0  0
    1.2990    0.7500    0.0000 C   0  0
    0.0000    1.5000    0.0000 C   0  0
   -1.2990    0.7500    0.0000 C   0  0
   -1.2990   -0.7500    0.0000 C   0  0
    0.0000   -1.5000    0.0000 C   0  0
   -2.5988    1.5004    0.0000 S   0  0
   -3.6378    0.9001    0.0000 O   0  0
   -3.6383    2.0999    0.0000 O   0  0
   -2.5998    3.0012    0.0000 N   0  0
   -3.8995    3.7516    0.0000 C   0  0
   -3.9027    5.2517    0.0000 C   0  0
   -5.2032    5.9990    0.0000 C   0  0
   -6.5007    5.2464    0.0000 C   0  0
   -7.8036    5.9914    0.0000 O   0  0
   -9.1007    5.2365    0.0000 C   0  0
   -6.4977    3.7464    0.0000 C   0  0
   -5.1971    2.9990    0.0000 C   0  0
    6.4840   -9.2648    0.0000 H   0  0
    7.3524   -7.7663    0.0000 H   0  0
    7.3507   -8.7662    0.0000 H   0  0
    4.3204   -8.0102    0.0000 H   0  0
    4.3220   -7.0104    0.0000 H   0  0
    1.7282   -3.5024    0.0000 H   0  0
    2.5932   -4.0039    0.0000 H   0  0
    2.1651    1.2500    0.0000 H   0  0
    0.0000    2.5000    0.0000 H   0  0
   -2.1651   -1.2500    0.0000 H   0  0
    0.0000   -2.5000    0.0000 H   0  0
   -3.0377    5.7535    0.0000 H   0  0
   -5.2053    6.9990    0.0000 H   0  0
   -9.9688    5.7330    0.0000 H   0  0
   -9.0969    4.2365    0.0000 H   0  0
   -9.9648    4.7331    0.0000 H   0  0
   -7.3627    3.2446    0.0000 H   0  0
   -5.1951    1.9990    0.0000 H   0  0
   -1.7339    3.5015    0.0000 H   0  0
  1  2  1  0
  2  3  1  0
  3  4  1  0
  4  5  2  0
  4  6  1  0
  6  7  1  0
  7  8  1  0
  8  9  2  0
  8 10  1  0
 10 11  2  0
 11 12  1  0
 12 13  2  0
 13 14  1  0
 14 15  2  0
 10 15  1  0
 13 16  1  0
 16 17  2  0
 16 18  2  0
 16 19  1  0
 19 20  1  0
 20 21  2  0
 21 22  1  0
 22 23  2  0
 23 24  1  0
 24 25  1  0
 23 26  1  0
 26 27  2  0
 20 27  1  0
  1 28  1  0
  1 29  1  0
  1 30  1  0
  2 31  1  0
  2 32  1  0
  7 33  1  0
  7 34  1  0
 11 35  1  0
 12 36  1  0
 14 37  1  0
 15 38  1  0
 21 39  1  0
 22 40  1  0
 25 41  1  0
 25 42  1  0
 25 43  1  0
 26 44  1  0
 27 45  1  0
 19 46  1  0
M  END
> <Name>
CHEMBL518961

> <ALogP>
4.755

> <Molecular_Weight>
441.60776

> <Num_H_Acceptors>
7

> <Num_H_Donors>
1

> <Num_RotatableBonds>
10

> <FormalCharge>
0

$$$$
CHEMBL482002
  SciTegic01131515592D

 54 57  0  0  0  0            999 V2000
    2.5951   -3.0039    0.0000 C   0  0
    2.5973   -1.5031    0.0000 S   0  0
    1.2990   -0.7500    0.0000 C   0  0
    1.2990    0.7500    0.0000 N   0  0
    0.0000    1.5000    0.0000 C   0  0
    0.0031    3.0008    0.0000 N   0  0
    1.3039    3.7494    0.0000 C   0  0
    1.3070    5.2502    0.0000 C   0  0
    2.6075    5.9976    0.0000 C   0  0
    2.6106    7.4976    0.0000 C   0  0
    1.3131    8.2502    0.0000 C   0  0
    0.0125    7.5029    0.0000 C   0  0
    0.0095    6.0029    0.0000 C   0  0
    1.3131    9.7511    0.0000 C   0  0
    2.3525   10.3507    0.0000 O   0  0
    0.0138   10.5023    0.0000 N   0  0
    0.0138   12.0031    0.0000 C   0  0
   -1.2837   12.7558    0.0000 C   0  0
   -1.2806   14.2558    0.0000 C   0  0
    0.0199   15.0032    0.0000 C   0  0
    1.3174   14.2506    0.0000 C   0  0
    1.3144   12.7506    0.0000 C   0  0
    2.6111   11.9949    0.0000 N   0  0
   -1.2990    0.7500    0.0000 C   0  0
   -1.2990   -0.7500    0.0000 C   0  0
    0.0000   -1.5000    0.0000 N   0  0
   -2.5987   -1.5004    0.0000 C   0  0
   -3.8991   -0.7525    0.0000 C   0  0
   -5.1969   -1.5046    0.0000 C   0  0
   -5.1945   -3.0046    0.0000 C   0  0
   -3.8943   -3.7525    0.0000 N   0  0
   -2.5964   -3.0004    0.0000 C   0  0
    3.4601   -3.5057    0.0000 H   0  0
    1.7282   -3.5024    0.0000 H   0  0
    2.5932   -4.0039    0.0000 H   0  0
    2.1690    3.2479    0.0000 H   0  0
    1.3023    2.7494    0.0000 H   0  0
    3.4725    5.4958    0.0000 H   0  0
    3.4777    7.9958    0.0000 H   0  0
   -0.8524    8.0047    0.0000 H   0  0
   -0.8576    5.5047    0.0000 H   0  0
   -2.1507   12.2576    0.0000 H   0  0
   -2.1456   14.7576    0.0000 H   0  0
    0.0220   16.0032    0.0000 H   0  0
    2.1845   14.7488    0.0000 H   0  0
   -2.1651    1.2500    0.0000 H   0  0
   -3.9007    0.2475    0.0000 H   0  0
   -6.0637   -1.0060    0.0000 H   0  0
   -6.0597   -3.5059    0.0000 H   0  0
   -1.7296   -3.4991    0.0000 H   0  0
   -0.8621    3.5023    0.0000 H   0  0
   -0.8523   10.0025    0.0000 H   0  0
    2.6077   10.9949    0.0000 H   0  0
    3.4790   12.4917    0.0000 H   0  0
  1  2  1  0
  2  3  1  0
  3  4  2  0
  4  5  1  0
  5  6  1  0
  6  7  1  0
  7  8  1  0
  8  9  2  0
  9 10  1  0
 10 11  2  0
 11 12  1  0
 12 13  2  0
  8 13  1  0
 11 14  1  0
 14 15  2  0
 14 16  1  0
 16 17  1  0
 17 18  2  0
 18 19  1  0
 19 20  2  0
 20 21  1  0
 21 22  2  0
 17 22  1  0
 22 23  1  0
  5 24  2  0
 24 25  1  0
 25 26  2  0
  3 26  1  0
 25 27  1  0
 27 28  2  0
 28 29  1  0
 29 30  2  0
 30 31  1  0
 31 32  2  0
 27 32  1  0
  1 33  1  0
  1 34  1  0
  1 35  1  0
  7 36  1  0
  7 37  1  0
  9 38  1  0
 10 39  1  0
 12 40  1  0
 13 41  1  0
 18 42  1  0
 19 43  1  0
 20 44  1  0
 21 45  1  0
 24 46  1  0
 28 47  1  0
 29 48  1  0
 30 49  1  0
 32 50  1  0
  6 51  1  0
 16 52  1  0
 23 53  1  0
 23 54  1  0
M  END
> <Name>
CHEMBL482002

> <ALogP>
3.879

> <Molecular_Weight>
442.53608

> <Num_H_Acceptors>
7

> <Num_H_Donors>
3

> <Num_RotatableBonds>
7

> <FormalCharge>
0

$$$$
CHEMBL479601
  SciTegic01131515592D

 45 46  0  0  0  0            999 V2000
   -4.8826  -11.9019    0.0000 C   0  0
   -3.9962  -10.6908    0.0000 C   0  0
   -2.5041  -10.8520    0.0000 S   0  0
   -1.6177   -9.6409    0.0000 C   0  0
   -2.1022   -8.5431    0.0000 S   0  0
   -0.1255   -9.8020    0.0000 S   0  0
    0.7609   -8.5909    0.0000 C   0  0
    2.2530   -8.7521    0.0000 C   0  0
    2.7376   -9.8499    0.0000 O   0  0
    3.1379   -7.5431    0.0000 C   0  0
    4.6379   -7.5452    0.0000 C   0  0
    5.1035   -6.1193    0.0000 C   0  0
    3.8912   -5.2578    0.0000 C   0  0
    3.8933   -3.7570    0.0000 C   0  0
    2.5951   -3.0039    0.0000 C   0  0
    1.5548   -3.6021    0.0000 O   0  0
    2.5973   -1.5031    0.0000 N   0  0
    1.2990   -0.7500    0.0000 C   0  0
    1.2990    0.7500    0.0000 C   0  0
    0.0000    1.5000    0.0000 C   0  0
   -1.2990    0.7500    0.0000 C   0  0
   -2.6003    1.4977    0.0000 O   0  0
   -3.8990    0.7455    0.0000 C   0  0
   -1.2990   -0.7500    0.0000 C   0  0
    0.0000   -1.5000    0.0000 C   0  0
    2.6764   -6.1158    0.0000 S   0  0
   -5.8768  -11.7945    0.0000 H   0  0
   -4.4788  -12.8167    0.0000 H   0  0
   -5.4728  -12.7091    0.0000 H   0  0
   -4.4000   -9.7760    0.0000 H   0  0
   -3.4060   -9.8836    0.0000 H   0  0
    0.3571   -7.6761    0.0000 H   0  0
   -0.2333   -8.4831    0.0000 H   0  0
    5.2246   -8.3550    0.0000 H   0  0
    6.0531   -5.8059    0.0000 H   0  0
    3.8952   -2.7570    0.0000 H   0  0
    4.7602   -3.2585    0.0000 H   0  0
    2.1651    1.2500    0.0000 H   0  0
    0.0000    2.5000    0.0000 H   0  0
   -4.7661    1.2437    0.0000 H   0  0
   -3.8973   -0.2545    0.0000 H   0  0
   -4.7641    0.2438    0.0000 H   0  0
   -2.1651   -1.2500    0.0000 H   0  0
    0.0000   -2.5000    0.0000 H   0  0
    3.4642   -1.0046    0.0000 H   0  0
  1  2  1  0
  2  3  1  0
  3  4  1  0
  4  5  2  0
  4  6  1  0
  6  7  1  0
  7  8  1  0
  8  9  2  0
  8 10  1  0
 10 11  2  0
 11 12  1  0
 12 13  2  0
 13 14  1  0
 14 15  1  0
 15 16  2  0
 15 17  1  0
 17 18  1  0
 18 19  2  0
 19 20  1  0
 20 21  2  0
 21 22  1  0
 22 23  1  0
 21 24  1  0
 24 25  2  0
 18 25  1  0
 13 26  1  0
 10 26  1  0
  1 27  1  0
  1 28  1  0
  1 29  1  0
  2 30  1  0
  2 31  1  0
  7 32  1  0
  7 33  1  0
 11 34  1  0
 12 35  1  0
 14 36  1  0
 14 37  1  0
 19 38  1  0
 20 39  1  0
 23 40  1  0
 23 41  1  0
 23 42  1  0
 24 43  1  0
 25 44  1  0
 17 45  1  0
M  END
> <Name>
CHEMBL479601

> <ALogP>
5.332

> <Molecular_Weight>
425.60836

> <Num_H_Acceptors>
6

> <Num_H_Donors>
1

> <Num_RotatableBonds>
10

> <FormalCharge>
0

$$$$
CHEMBL2179247
  SciTegic01131515592D

 40 41  0  0  0  0            999 V2000
    3.8990   -0.7562    0.0000 C   0  0
    2.5973   -1.5031    0.0000 O   0  0
    1.2990   -0.7500    0.0000 C   0  0
    1.2990    0.7500    0.0000 C   0  0
    0.0000    1.5000    0.0000 C   0  0
   -1.2990    0.7500    0.0000 C   0  0
   -1.2990   -0.7500    0.0000 C   0  0
    0.0000   -1.5000    0.0000 C   0  0
    0.0031   -3.0008    0.0000 N   0  0
    1.3039   -3.7494    0.0000 C   0  0
    2.3421   -3.1476    0.0000 O   0  0
    1.3070   -5.2502    0.0000 N   0  0
    2.6078   -5.9988    0.0000 C   0  0
    2.6109   -7.4996    0.0000 C   0  0
    1.3134   -8.2523    0.0000 C   0  0
    1.3165   -9.7523    0.0000 C   0  0
    2.6171  -10.4996    0.0000 C   0  0
    3.9146   -9.7469    0.0000 C   0  0
    3.9115   -8.2469    0.0000 C   0  0
    2.6233  -12.0004    0.0000 C   0  0
    1.5864  -12.6044    0.0000 O   0  0
    3.9257  -12.7463    0.0000 N   0  0
    3.9318  -14.2471    0.0000 O   0  0
    4.7640   -1.2579    0.0000 H   0  0
    3.9014    0.2438    0.0000 H   0  0
    4.7662   -0.2581    0.0000 H   0  0
    2.1651    1.2500    0.0000 H   0  0
    0.0000    2.5000    0.0000 H   0  0
   -2.1651    1.2500    0.0000 H   0  0
   -2.1651   -1.2500    0.0000 H   0  0
    2.6062   -4.9988    0.0000 H   0  0
    3.4730   -5.4973    0.0000 H   0  0
    0.4464   -7.7541    0.0000 H   0  0
    0.4515  -10.2541    0.0000 H   0  0
    4.7817  -10.2451    0.0000 H   0  0
    4.7765   -7.7451    0.0000 H   0  0
   -0.8621   -3.5023    0.0000 H   0  0
    0.4419   -5.7517    0.0000 H   0  0
    4.7898  -12.2430    0.0000 H   0  0
    4.7996  -14.7441    0.0000 H   0  0
  1  2  1  0
  2  3  1  0
  3  4  2  0
  4  5  1  0
  5  6  2  0
  6  7  1  0
  7  8  2  0
  3  8  1  0
  8  9  1  0
  9 10  1  0
 10 11  2  0
 10 12  1  0
 12 13  1  0
 13 14  1  0
 14 15  2  0
 15 16  1  0
 16 17  2  0
 17 18  1  0
 18 19  2  0
 14 19  1  0
 17 20  1  0
 20 21  2  0
 20 22  1  0
 22 23  1  0
  1 24  1  0
  1 25  1  0
  1 26  1  0
  4 27  1  0
  5 28  1  0
  6 29  1  0
  7 30  1  0
 13 31  1  0
 13 32  1  0
 15 33  1  0
 16 34  1  0
 18 35  1  0
 19 36  1  0
  9 37  1  0
 12 38  1  0
 22 39  1  0
 23 40  1  0
M  END
> <Name>
CHEMBL2179247

> <ALogP>
1.528

> <Molecular_Weight>
315.32388

> <Num_H_Acceptors>
4

> <Num_H_Donors>
4

> <Num_RotatableBonds>
5

> <FormalCharge>
0

$$$$
CHEMBL475820
  SciTegic01131515592D

 64 68  0  0  0  0            999 V2000
    2.5988   -1.5004    0.0000 C   0  0
    1.2990   -0.7500    0.0000 C   0  0
    1.2990    0.7500    0.0000 C   0  0
    0.0000    1.5000    0.0000 C   0  0
   -1.2990    0.7500    0.0000 C   0  0
   -2.6003    1.4977    0.0000 N   0  0
   -3.8990    0.7455    0.0000 C   0  0
   -3.8969   -0.4545    0.0000 O   0  0
   -5.2003    1.4932    0.0000 C   0  0
   -6.4994    0.7432    0.0000 C   0  0
   -7.7985    1.4932    0.0000 C   0  0
   -7.7985    2.9932    0.0000 C   0  0
   -6.4995    3.7432    0.0000 C   0  0
   -5.2004    2.9933    0.0000 C   0  0
   -9.0967    3.7462    0.0000 C   0  0
  -10.1370    3.1480    0.0000 O   0  0
   -9.0947    5.2471    0.0000 N   0  0
  -10.3929    6.0001    0.0000 C   0  0
  -10.3930    7.5001    0.0000 C   0  0
  -11.6920    8.2501    0.0000 C   0  0
  -12.9911    7.5001    0.0000 C   0  0
  -12.9910    6.0001    0.0000 C   0  0
  -11.6920    5.2501    0.0000 C   0  0
  -11.6890    3.7493    0.0000 N   0  0
   -1.2990   -0.7500    0.0000 C   0  0
    0.0000   -1.5000    0.0000 C   0  0
    0.0031   -3.0008    0.0000 N   0  0
   -1.2946   -3.7547    0.0000 C   0  0
   -1.2937   -5.2548    0.0000 N   0  0
   -2.5923   -6.0056    0.0000 C   0  0
   -3.8918   -5.2565    0.0000 C   0  0
   -3.8928   -3.7565    0.0000 C   0  0
   -2.5943   -3.0056    0.0000 N   0  0
   -5.1910   -6.0077    0.0000 C   0  0
   -5.1925   -7.5078    0.0000 C   0  0
   -6.4922   -8.2566    0.0000 C   0  0
   -7.7906   -7.5054    0.0000 C   0  0
   -7.7892   -6.0054    0.0000 N   0  0
   -6.4894   -5.2566    0.0000 C   0  0
    3.4651   -1.0010    0.0000 H   0  0
    2.5985   -2.5004    0.0000 H   0  0
    3.4646   -2.0008    0.0000 H   0  0
    2.1651    1.2500    0.0000 H   0  0
    0.0000    2.5000    0.0000 H   0  0
   -6.4994   -0.2568    0.0000 H   0  0
   -8.6645    0.9932    0.0000 H   0  0
   -6.4995    4.7432    0.0000 H   0  0
   -4.3344    3.4933    0.0000 H   0  0
   -9.5270    8.0002    0.0000 H   0  0
  -11.6920    9.2501    0.0000 H   0  0
  -13.8571    8.0001    0.0000 H   0  0
  -13.8571    5.5001    0.0000 H   0  0
   -2.1651   -1.2500    0.0000 H   0  0
   -2.5916   -7.0056    0.0000 H   0  0
   -4.7592   -3.2571    0.0000 H   0  0
   -4.3270   -8.0086    0.0000 H   0  0
   -6.4932   -9.2566    0.0000 H   0  0
   -8.6571   -8.0046    0.0000 H   0  0
   -6.4886   -4.2566    0.0000 H   0  0
   -2.6021    2.4977    0.0000 H   0  0
   -8.2278    5.7456    0.0000 H   0  0
  -10.8222    3.2505    0.0000 H   0  0
  -12.5541    3.2478    0.0000 H   0  0
    0.8703   -3.4988    0.0000 H   0  0
  1  2  1  0
  2  3  2  0
  3  4  1  0
  4  5  2  0
  5  6  1  0
  6  7  1  0
  7  8  2  0
  7  9  1  0
  9 10  2  0
 10 11  1  0
 11 12  2  0
 12 13  1  0
 13 14  2  0
  9 14  1  0
 12 15  1  0
 15 16  2  0
 15 17  1  0
 17 18  1  0
 18 19  2  0
 19 20  1  0
 20 21  2  0
 21 22  1  0
 22 23  2  0
 18 23  1  0
 23 24  1  0
  5 25  1  0
 25 26  2  0
  2 26  1  0
 26 27  1  0
 27 28  1  0
 28 29  2  0
 29 30  1  0
 30 31  2  0
 31 32  1  0
 32 33  2  0
 28 33  1  0
 31 34  1  0
 34 35  2  0
 35 36  1  0
 36 37  2  0
 37 38  1  0
 38 39  2  0
 34 39  1  0
  1 40  1  0
  1 41  1  0
  1 42  1  0
  3 43  1  0
  4 44  1  0
 10 45  1  0
 11 46  1  0
 13 47  1  0
 14 48  1  0
 19 49  1  0
 20 50  1  0
 21 51  1  0
 22 52  1  0
 25 53  1  0
 30 54  1  0
 32 55  1  0
 35 56  1  0
 36 57  1  0
 37 58  1  0
 39 59  1  0
  6 60  1  0
 17 61  1  0
 24 62  1  0
 24 63  1  0
 27 64  1  0
M  END
> <Name>
CHEMBL475820

> <ALogP>
3.162

> <Molecular_Weight>
515.5652

> <Num_H_Acceptors>
7

> <Num_H_Donors>
4

> <Num_RotatableBonds>
7

> <FormalCharge>
0

$$$$
CHEMBL494138
  SciTegic01131515592D

 59 61  0  0  1  0            999 V2000
    3.8816   -9.7500    0.0000 N   0  0
    3.8851   -8.2491    0.0000 S   0  0
    3.8873   -7.0492    0.0000 O   0  0
    2.8471   -7.6470    0.0000 O   0  0
    5.1861   -7.5010    0.0000 N   0  0
    5.1897   -6.0001    0.0000 C   0  0
    6.4907   -5.2520    0.0000 C   0  0
    6.4942   -3.7511    0.0000 C   0  0
    7.7953   -3.0030    0.0000 C   0  0
    7.7988   -1.5021    0.0000 C   0  0  2  0  0  0
    6.4990   -0.7516    0.0000 N   0  0
    5.1988   -1.5012    0.0000 C   0  0
    5.1984   -2.7012    0.0000 O   0  0
    3.8990   -0.7508    0.0000 O   0  0
    2.5988   -1.5004    0.0000 C   0  0
    1.2990   -0.7500    0.0000 C   0  0
    1.2990    0.7500    0.0000 C   0  0
    0.0000    1.5000    0.0000 C   0  0
   -1.2990    0.7500    0.0000 C   0  0
   -1.2990   -0.7500    0.0000 C   0  0
    0.0000   -1.5000    0.0000 C   0  0
    9.0990   -0.7525    0.0000 C   0  0
   10.4499   -1.3743    0.0000 C   0  0
   11.4543   -0.2602    0.0000 N   0  0
   10.7050    1.0393    0.0000 C   0  0
    9.2376    0.7283    0.0000 N   0  0
   11.3162    2.4100    0.0000 C   0  0
   12.7874    2.6760    0.0000 C   0  0
   13.2935    4.0880    0.0000 C   0  0
   12.3236    5.2323    0.0000 C   0  0
   10.8477    4.9645    0.0000 C   0  0
   10.3416    3.5525    0.0000 C   0  0
    4.3246   -5.4984    0.0000 H   0  0
    4.3225   -6.4982    0.0000 H   0  0
    7.3557   -5.7537    0.0000 H   0  0
    7.3578   -4.7539    0.0000 H   0  0
    5.6292   -3.2494    0.0000 H   0  0
    6.4961   -2.7511    0.0000 H   0  0
    8.6603   -3.5047    0.0000 H   0  0
    8.6624   -2.5049    0.0000 H   0  0
    7.7991   -0.5021    0.0000 H   0  0
    3.4646   -2.0008    0.0000 H   0  0
    2.5985   -2.5004    0.0000 H   0  0
    2.1651    1.2500    0.0000 H   0  0
    0.0000    2.5000    0.0000 H   0  0
   -2.1651    1.2500    0.0000 H   0  0
   -2.1651   -1.2500    0.0000 H   0  0
    0.0000   -2.5000    0.0000 H   0  0
   10.6515   -2.3538    0.0000 H   0  0
   13.4337    1.9129    0.0000 H   0  0
   14.2774    4.2665    0.0000 H   0  0
   12.6610    6.1737    0.0000 H   0  0
   10.2012    5.7274    0.0000 H   0  0
    9.3580    3.3724    0.0000 H   0  0
    3.0147  -10.2485    0.0000 H   0  0
    4.7466  -10.2517    0.0000 H   0  0
    6.0511   -8.0027    0.0000 H   0  0
    6.4993    0.2484    0.0000 H   0  0
   12.4487   -0.3653    0.0000 H   0  0
  1  2  1  0
  2  3  2  0
  2  4  2  0
  2  5  1  0
  5  6  1  0
  6  7  1  0
  7  8  1  0
  8  9  1  0
  9 10  1  0
 10 11  1  0
 11 12  1  0
 12 13  2  0
 12 14  1  0
 14 15  1  0
 15 16  1  0
 16 17  2  0
 17 18  1  0
 18 19  2  0
 19 20  1  0
 20 21  2  0
 16 21  1  0
 10 22  1  0
 22 23  2  0
 23 24  1  0
 24 25  1  0
 25 26  2  0
 22 26  1  0
 25 27  1  0
 27 28  2  0
 28 29  1  0
 29 30  2  0
 30 31  1  0
 31 32  2  0
 27 32  1  0
  6 33  1  0
  6 34  1  0
  7 35  1  0
  7 36  1  0
  8 37  1  0
  8 38  1  0
  9 39  1  0
  9 40  1  0
 10 41  1  1
 15 42  1  0
 15 43  1  0
 17 44  1  0
 18 45  1  0
 19 46  1  0
 20 47  1  0
 21 48  1  0
 23 49  1  0
 28 50  1  0
 29 51  1  0
 30 52  1  0
 31 53  1  0
 32 54  1  0
  1 55  1  0
  1 56  1  0
  5 57  1  0
 11 58  1  0
 24 59  1  0
M  STY  1   1 DAT
M  SAL   1  1  24
M  SDT   1 MRV_IMPLICIT_H
M  SDD   1     0.0000    0.0000    DR    ALL  0       0
M  SED   1 IMPL_H1
M  END
> <Name>
CHEMBL494138

> <ALogP>
2.607

> <Molecular_Weight>
457.54588

> <Num_H_Acceptors>
5

> <Num_H_Donors>
4

> <Num_RotatableBonds>
12

> <FormalCharge>
0

$$$$
CHEMBL403597
  SciTegic01131515592D

 45 47  0  0  0  0            999 V2000
    2.5988   -1.5004    0.0000 C   0  0
    1.2990   -0.7500    0.0000 C   0  0
    1.2990    0.7500    0.0000 C   0  0
    0.0000    1.5000    0.0000 C   0  0
   -1.2990    0.7500    0.0000 C   0  0
   -2.5988    1.5004    0.0000 C   0  0
   -3.6380    2.1004    0.0000 N   0  0
   -1.2990   -0.7500    0.0000 C   0  0
   -2.5972   -1.5031    0.0000 O   0  0
   -2.5951   -3.0039    0.0000 C   0  0
   -3.8933   -3.7570    0.0000 C   0  0
   -3.8902   -5.2570    0.0000 C   0  0
   -5.1877   -6.0097    0.0000 C   0  0
   -6.4883   -5.2624    0.0000 C   0  0
   -6.4914   -3.7624    0.0000 C   0  0
   -5.1939   -3.0097    0.0000 C   0  0
   -7.7880   -6.0128    0.0000 C   0  0
   -7.7877   -7.2128    0.0000 O   0  0
   -9.0883   -5.2632    0.0000 N   0  0
  -10.3880   -6.0136    0.0000 C   0  0
  -11.6887   -5.2663    0.0000 C   0  0
  -12.9862   -6.0190    0.0000 C   0  0
  -12.9831   -7.5190    0.0000 C   0  0
  -11.6826   -8.2663    0.0000 C   0  0
  -10.3850   -7.5137    0.0000 C   0  0
   -9.0822   -8.2588    0.0000 N   0  0
    0.0000   -1.5000    0.0000 N   0  0
    3.4651   -1.0010    0.0000 H   0  0
    2.5985   -2.5004    0.0000 H   0  0
    3.4646   -2.0008    0.0000 H   0  0
    2.1651    1.2500    0.0000 H   0  0
    0.0000    2.5000    0.0000 H   0  0
   -1.7282   -3.5024    0.0000 H   0  0
   -1.7299   -2.5025    0.0000 H   0  0
   -3.0232   -5.7552    0.0000 H   0  0
   -5.1857   -7.0097    0.0000 H   0  0
   -7.3584   -3.2642    0.0000 H   0  0
   -5.1960   -2.0097    0.0000 H   0  0
  -11.6907   -4.2663    0.0000 H   0  0
  -13.8532   -5.5207    0.0000 H   0  0
  -13.8481   -8.0207    0.0000 H   0  0
  -11.6805   -9.2663    0.0000 H   0  0
   -9.0886   -4.2632    0.0000 H   0  0
   -8.2179   -7.7559    0.0000 H   0  0
   -9.0785   -9.2588    0.0000 H   0  0
  1  2  1  0
  2  3  2  0
  3  4  1  0
  4  5  2  0
  5  6  1  0
  6  7  3  0
  5  8  1  0
  8  9  1  0
  9 10  1  0
 10 11  1  0
 11 12  2  0
 12 13  1  0
 13 14  2  0
 14 15  1  0
 15 16  2  0
 11 16  1  0
 14 17  1  0
 17 18  2  0
 17 19  1  0
 19 20  1  0
 20 21  2  0
 21 22  1  0
 22 23  2  0
 23 24  1  0
 24 25  2  0
 20 25  1  0
 25 26  1  0
  8 27  2  0
  2 27  1  0
  1 28  1  0
  1 29  1  0
  1 30  1  0
  3 31  1  0
  4 32  1  0
 10 33  1  0
 10 34  1  0
 12 35  1  0
 13 36  1  0
 15 37  1  0
 16 38  1  0
 21 39  1  0
 22 40  1  0
 23 41  1  0
 24 42  1  0
 19 43  1  0
 26 44  1  0
 26 45  1  0
M  END
> <Name>
CHEMBL403597

> <ALogP>
2.985

> <Molecular_Weight>
358.39322

> <Num_H_Acceptors>
5

> <Num_H_Donors>
2

> <Num_RotatableBonds>
5

> <FormalCharge>
0

$$$$
CHEMBL237324
  SciTegic01131515592D

 51 53  0  0  1  0            999 V2000
    0.8068   -3.3033    0.0000 C   0  0
    1.7710   -2.1532    0.0000 C   0  0
    3.2490   -2.4136    0.0000 C   0  0
    1.2990   -0.7500    0.0000 C   0  0  1  0  0  0
    1.2990    0.7500    0.0000 C   0  0
    0.0000    1.5000    0.0000 N   0  0
   -1.2990    0.7500    0.0000 C   0  0
   -1.2990   -0.7500    0.0000 C   0  0
    0.0000   -1.5000    0.0000 N   0  3
    0.0000    3.0008    0.0000 C   0  0
    1.2978    3.7529    0.0000 C   0  0
    1.2954    5.2529    0.0000 C   0  0
   -0.0048    6.0009    0.0000 C   0  0
   -1.3026    5.2488    0.0000 C   0  0
   -1.3002    3.7488    0.0000 N   0  0
   -0.0103    7.5017    0.0000 C   0  0
    1.0270    8.1052    0.0000 O   0  0
   -1.3123    8.2482    0.0000 N   0  0
   -1.3178    9.7490    0.0000 C   0  0
   -2.6180   10.4970    0.0000 C   0  0
   -2.6204   11.9970    0.0000 C   0  0
   -1.3226   12.7491    0.0000 C   0  0
   -0.0223   12.0012    0.0000 C   0  0
   -0.0199   10.5012    0.0000 C   0  0
    1.2795    9.7502    0.0000 N   0  0
    1.1486   -4.2431    0.0000 H   0  0
    0.1639   -4.0693    0.0000 H   0  0
   -0.1781   -3.1298    0.0000 H   0  0
    2.1132   -3.0928    0.0000 H   0  0
    3.5917   -3.3531    0.0000 H   0  0
    3.8914   -1.6473    0.0000 H   0  0
    4.2339   -2.5867    0.0000 H   0  0
    2.1526   -0.2289    0.0000 H   0  0
    0.4215    0.2706    0.0000 H   0  0
    1.2755    1.7497    0.0000 H   0  0
   -2.1530    0.2297    0.0000 H   0  0
   -1.2756    1.7497    0.0000 H   0  0
   -0.4215   -0.2706    0.0000 H   0  0
   -1.2755   -1.7497    0.0000 H   0  0
    2.1647    3.2543    0.0000 H   0  0
    2.1607    5.7543    0.0000 H   0  0
   -2.1695    5.7474    0.0000 H   0  0
   -3.4832    9.9956    0.0000 H   0  0
   -3.4872   12.4956    0.0000 H   0  0
   -1.3242   13.7491    0.0000 H   0  0
    0.8429   12.5026    0.0000 H   0  0
   -0.8776   -1.9794    0.0000 H   0  0
    0.8775   -1.9795    0.0000 H   0  0
   -2.1766    7.7453    0.0000 H   0  0
    1.2798    8.7502    0.0000 H   0  0
    2.1456   10.2502    0.0000 H   0  0
  1  2  1  0
  2  3  1  0
  4  2  1  0
  4  5  1  0
  5  6  1  0
  6  7  1  0
  7  8  1  0
  8  9  1  0
  4  9  1  0
  6 10  1  0
 10 11  2  0
 11 12  1  0
 12 13  2  0
 13 14  1  0
 14 15  2  0
 10 15  1  0
 13 16  1  0
 16 17  2  0
 16 18  1  0
 18 19  1  0
 19 20  2  0
 20 21  1  0
 21 22  2  0
 22 23  1  0
 23 24  2  0
 19 24  1  0
 24 25  1  0
  1 26  1  0
  1 27  1  0
  1 28  1  0
  2 29  1  0
  3 30  1  0
  3 31  1  0
  3 32  1  0
  4 33  1  1
  5 34  1  0
  5 35  1  0
  7 36  1  0
  7 37  1  0
  8 38  1  0
  8 39  1  0
 11 40  1  0
 12 41  1  0
 14 42  1  0
 20 43  1  0
 21 44  1  0
 22 45  1  0
 23 46  1  0
  9 47  1  0
  9 48  1  0
 18 49  1  0
 25 50  1  0
 25 51  1  0
M  CHG  1   9   1
M  END
> <Name>
CHEMBL237324

> <ALogP>
0.83

> <Molecular_Weight>
340.44264

> <Num_H_Acceptors>
4

> <Num_H_Donors>
3

> <Num_RotatableBonds>
4

> <FormalCharge>
1

$$$$
CHEMBL2312167
  SciTegic01131515592D

 43 43  0  0  0  0            999 V2000
    2.5988   -1.5004    0.0000 C   0  0
    1.2990   -0.7500    0.0000 C   0  0
    1.2990    0.7500    0.0000 C   0  0
    0.0000    1.5000    0.0000 C   0  0
   -1.2990    0.7500    0.0000 C   0  0
   -1.2990   -0.7500    0.0000 C   0  0
    0.0000   -1.5000    0.0000 C   0  0
    0.0000   -3.0008    0.0000 C   0  0
   -2.6003    1.4977    0.0000 C   0  0
   -2.6024    2.6977    0.0000 O   0  0
   -3.8990    0.7455    0.0000 N   0  0
   -5.2003    1.4932    0.0000 O   0  0
   -6.4990    0.7409    0.0000 C   0  0
   -7.8003    1.4887    0.0000 C   0  0
   -9.0990    0.7364    0.0000 C   0  0
  -10.4003    1.4841    0.0000 C   0  0
  -11.6990    0.7318    0.0000 C   0  0
  -13.0003    1.4796    0.0000 C   0  0
  -13.0023    2.6796    0.0000 O   0  0
  -14.2989    0.7273    0.0000 N   0  0
  -15.6002    1.4750    0.0000 O   0  0
    3.4651   -1.0010    0.0000 H   0  0
    2.5985   -2.5004    0.0000 H   0  0
    3.4646   -2.0008    0.0000 H   0  0
    2.1651    1.2500    0.0000 H   0  0
    0.0000    2.5000    0.0000 H   0  0
   -2.1651   -1.2500    0.0000 H   0  0
   -0.8657   -3.5014    0.0000 H   0  0
    0.8662   -3.5005    0.0000 H   0  0
    0.0005   -4.0008    0.0000 H   0  0
   -6.4973   -0.2591    0.0000 H   0  0
   -5.6322    0.2423    0.0000 H   0  0
   -7.8020    2.4887    0.0000 H   0  0
   -6.9352    1.9903    0.0000 H   0  0
   -9.0972   -0.2636    0.0000 H   0  0
   -8.2322    0.2378    0.0000 H   0  0
  -10.4020    2.4841    0.0000 H   0  0
   -9.5352    1.9858    0.0000 H   0  0
  -11.6972   -0.2682    0.0000 H   0  0
  -12.5640    0.2302    0.0000 H   0  0
   -3.8973   -0.2545    0.0000 H   0  0
  -14.2972   -0.2727    0.0000 H   0  0
  -16.4655    0.9738    0.0000 H   0  0
  1  2  1  0
  2  3  2  0
  3  4  1  0
  4  5  2  0
  5  6  1  0
  6  7  2  0
  2  7  1  0
  7  8  1  0
  5  9  1  0
  9 10  2  0
  9 11  1  0
 11 12  1  0
 12 13  1  0
 13 14  1  0
 14 15  1  0
 15 16  1  0
 16 17  1  0
 17 18  1  0
 18 19  2  0
 18 20  1  0
 20 21  1  0
  1 22  1  0
  1 23  1  0
  1 24  1  0
  3 25  1  0
  4 26  1  0
  6 27  1  0
  8 28  1  0
  8 29  1  0
  8 30  1  0
 13 31  1  0
 13 32  1  0
 14 33  1  0
 14 34  1  0
 15 35  1  0
 15 36  1  0
 16 37  1  0
 16 38  1  0
 17 39  1  0
 17 40  1  0
 11 41  1  0
 20 42  1  0
 21 43  1  0
M  END
> <Name>
CHEMBL2312167

> <ALogP>
2.204

> <Molecular_Weight>
294.34618

> <Num_H_Acceptors>
4

> <Num_H_Donors>
3

> <Num_RotatableBonds>
8

> <FormalCharge>
0

$$$$
CHEMBL507716
  SciTegic01131515592D

 33 34  0  0  1  0            999 V2000
    2.5983   -3.0012    0.0000 C   0  0
    2.5988   -1.5004    0.0000 C   0  0  1  0  0  0
    3.8990   -0.7508    0.0000 N   0  0
    5.1988   -1.5012    0.0000 C   0  0
    5.1984   -2.7012    0.0000 O   0  0
    6.4990   -0.7516    0.0000 C   0  0
    7.8513   -1.3707    0.0000 C   0  0
    8.8534   -0.2546    0.0000 C   0  0
    8.1015    1.0434    0.0000 C   0  0
    6.6348    0.7294    0.0000 S   0  0
    8.7061    2.4142    0.0000 C   0  0
    9.8992    2.5435    0.0000 O   0  0
    7.8205    3.6259    0.0000 C   0  0
    8.3048    4.7238    0.0000 F   0  0
    7.1119    4.5943    0.0000 F   0  0
    6.6275    3.4967    0.0000 F   0  0
    1.2990   -0.7500    0.0000 C   0  0
    1.2990    0.7500    0.0000 C   0  0
    0.0000    1.5000    0.0000 C   0  0
   -1.2990    0.7500    0.0000 C   0  0
   -1.2990   -0.7500    0.0000 C   0  0
    0.0000   -1.5000    0.0000 C   0  0
    1.7325   -3.5014    0.0000 H   0  0
    3.4643   -3.5012    0.0000 H   0  0
    2.5985   -4.0012    0.0000 H   0  0
    3.4646   -2.0008    0.0000 H   0  0
    8.0548   -2.3498    0.0000 H   0  0
    9.8480   -0.3577    0.0000 H   0  0
    2.1651    1.2500    0.0000 H   0  0
    0.0000    2.5000    0.0000 H   0  0
   -2.1651    1.2500    0.0000 H   0  0
   -2.1651   -1.2500    0.0000 H   0  0
    0.0000   -2.5000    0.0000 H   0  0
  2  1  1  0
  2  3  1  0
  3  4  1  0
  4  5  2  0
  4  6  1  0
  6  7  2  0
  7  8  1  0
  8  9  2  0
  9 10  1  0
  6 10  1  0
  9 11  1  0
 11 12  2  0
 11 13  1  0
 13 14  1  0
 13 15  1  0
 13 16  1  0
  2 17  1  0
 17 18  2  0
 18 19  1  0
 19 20  2  0
 20 21  1  0
 21 22  2  0
 17 22  1  0
  1 23  1  0
  1 24  1  0
  1 25  1  0
  2 26  1  1
  7 27  1  0
  8 28  1  0
 18 29  1  0
 19 30  1  0
 20 31  1  0
 21 32  1  0
 22 33  1  0
M  END
> <Name>
CHEMBL507716

> <ALogP>
4.072

> <Molecular_Weight>
327.32148

> <Num_H_Acceptors>
2

> <Num_H_Donors>
1

> <Num_RotatableBonds>
5

> <FormalCharge>
0

$$$$
CHEMBL482272
  SciTegic01131515592D

 47 48  0  0  0  0            999 V2000
    6.4855   -8.2648    0.0000 C   0  0
    5.1873   -7.5117    0.0000 C   0  0
    5.1894   -6.0109    0.0000 S   0  0
    3.8912   -5.2578    0.0000 C   0  0
    2.8509   -5.8560    0.0000 S   0  0
    3.8933   -3.7570    0.0000 S   0  0
    2.5951   -3.0039    0.0000 C   0  0
    2.5973   -1.5031    0.0000 C   0  0
    3.6375   -0.9049    0.0000 O   0  0
    1.2990   -0.7500    0.0000 C   0  0
    1.2990    0.7500    0.0000 C   0  0
    0.0000    1.5000    0.0000 C   0  0
   -1.2990    0.7500    0.0000 C   0  0
   -1.2990   -0.7500    0.0000 C   0  0
    0.0000   -1.5000    0.0000 C   0  0
   -2.5972   -1.5031    0.0000 C   0  0
   -3.6375   -0.9049    0.0000 O   0  0
   -2.5951   -3.0039    0.0000 N   0  0
   -3.8933   -3.7570    0.0000 C   0  0
   -3.8912   -5.2578    0.0000 C   0  0
   -5.1894   -6.0109    0.0000 O   0  0
   -5.1872   -7.5117    0.0000 C   0  0
   -6.4836   -8.2663    0.0000 C   0  0
   -6.4784   -9.7663    0.0000 C   0  0
   -5.1768  -10.5118    0.0000 C   0  0
   -3.8804   -9.7573    0.0000 C   0  0
   -3.8856   -8.2573    0.0000 C   0  0
    6.4840   -9.2648    0.0000 H   0  0
    7.3524   -7.7663    0.0000 H   0  0
    7.3507   -8.7662    0.0000 H   0  0
    4.3204   -8.0102    0.0000 H   0  0
    4.3220   -7.0104    0.0000 H   0  0
    1.7282   -3.5024    0.0000 H   0  0
    2.5932   -4.0039    0.0000 H   0  0
    2.1651    1.2500    0.0000 H   0  0
    0.0000    2.5000    0.0000 H   0  0
   -2.1651    1.2500    0.0000 H   0  0
    0.0000   -2.5000    0.0000 H   0  0
   -3.8952   -2.7570    0.0000 H   0  0
   -4.7602   -3.2585    0.0000 H   0  0
   -3.8893   -6.2578    0.0000 H   0  0
   -3.0243   -5.7563    0.0000 H   0  0
   -7.3514   -7.7694    0.0000 H   0  0
   -7.3427  -10.2693    0.0000 H   0  0
   -5.1734  -11.5118    0.0000 H   0  0
   -3.0126  -10.2543    0.0000 H   0  0
   -3.0213   -7.7544    0.0000 H   0  0
  1  2  1  0
  2  3  1  0
  3  4  1  0
  4  5  2  0
  4  6  1  0
  6  7  1  0
  7  8  1  0
  8  9  2  0
  8 10  1  0
 10 11  2  0
 11 12  1  0
 12 13  2  0
 13 14  1  0
 14 15  2  0
 10 15  1  0
 14 16  1  0
 16 17  2  0
 16 18  1  0
 18 19  1  0
 19 20  1  0
 20 21  1  0
 21 22  1  0
 22 23  2  0
 23 24  1  0
 24 25  2  0
 25 26  1  0
 26 27  2  0
 22 27  1  0
  1 28  1  0
  1 29  1  0
  1 30  1  0
  2 31  1  0
  2 32  1  0
  7 33  1  0
  7 34  1  0
 11 35  1  0
 12 36  1  0
 13 37  1  0
 15 38  1  0
 19 39  1  0
 19 40  1  0
 20 41  1  0
 20 42  1  0
 23 43  1  0
 24 44  1  0
 25 45  1  0
 26 46  1  0
 27 47  1  0
M  END
> <Name>
CHEMBL482272

> <ALogP>
5.124

> <Molecular_Weight>
419.58064

> <Num_H_Acceptors>
6

> <Num_H_Donors>
1

> <Num_RotatableBonds>
11

> <FormalCharge>
0

$$$$
CHEMBL482137
  SciTegic01131515592D

 40 41  0  0  0  0            999 V2000
    7.8662   10.1688    0.0000 C   0  0
    7.2605    8.7956    0.0000 C   0  0
    8.1462    7.5839    0.0000 S   0  0
    7.5405    6.2107    0.0000 C   0  0
    6.3475    6.0815    0.0000 S   0  0
    8.4261    4.9991    0.0000 S   0  0
    7.8205    3.6259    0.0000 C   0  0
    8.7061    2.4142    0.0000 C   0  0
    9.8992    2.5435    0.0000 O   0  0
    8.1015    1.0434    0.0000 C   0  0
    8.8534   -0.2546    0.0000 C   0  0
    7.8513   -1.3707    0.0000 C   0  0
    6.4990   -0.7516    0.0000 C   0  0
    6.6348    0.7294    0.0000 S   0  0
    5.1988   -1.5012    0.0000 C   0  0
    5.1984   -2.7012    0.0000 O   0  0
    3.8990   -0.7508    0.0000 N   0  0
    2.5988   -1.5004    0.0000 C   0  0
    1.2990   -0.7500    0.0000 C   0  0
    1.2990    0.7500    0.0000 C   0  0
    0.0000    1.5000    0.0000 C   0  0
   -1.2990    0.7500    0.0000 C   0  0
   -1.2990   -0.7500    0.0000 C   0  0
    0.0000   -1.5000    0.0000 C   0  0
    7.2761   10.9761    0.0000 H   0  0
    8.8603   10.2765    0.0000 H   0  0
    8.2701   11.0836    0.0000 H   0  0
    6.2663    8.6879    0.0000 H   0  0
    6.8565    7.8808    0.0000 H   0  0
    6.8263    3.5182    0.0000 H   0  0
    7.2300    4.4329    0.0000 H   0  0
    9.8480   -0.3577    0.0000 H   0  0
    8.0547   -2.3498    0.0000 H   0  0
    3.4646   -2.0008    0.0000 H   0  0
    2.5985   -2.5004    0.0000 H   0  0
    2.1651    1.2500    0.0000 H   0  0
    0.0000    2.5000    0.0000 H   0  0
   -2.1651    1.2500    0.0000 H   0  0
   -2.1651   -1.2500    0.0000 H   0  0
    0.0000   -2.5000    0.0000 H   0  0
  1  2  1  0
  2  3  1  0
  3  4  1  0
  4  5  2  0
  4  6  1  0
  6  7  1  0
  7  8  1  0
  8  9  2  0
  8 10  1  0
 10 11  2  0
 11 12  1  0
 12 13  2  0
 13 14  1  0
 10 14  1  0
 13 15  1  0
 15 16  2  0
 15 17  1  0
 17 18  1  0
 18 19  1  0
 19 20  2  0
 20 21  1  0
 21 22  2  0
 22 23  1  0
 23 24  2  0
 19 24  1  0
  1 25  1  0
  1 26  1  0
  1 27  1  0
  2 28  1  0
  2 29  1  0
  7 30  1  0
  7 31  1  0
 11 32  1  0
 12 33  1  0
 18 34  1  0
 18 35  1  0
 20 36  1  0
 21 37  1  0
 22 38  1  0
 23 39  1  0
 24 40  1  0
M  END
> <Name>
CHEMBL482137

> <ALogP>
5.32

> <Molecular_Weight>
395.58238

> <Num_H_Acceptors>
5

> <Num_H_Donors>
1

> <Num_RotatableBonds>
9

> <FormalCharge>
0

$$$$
CHEMBL472663
  SciTegic01131515592D

 36 37  0  0  0  0            999 V2000
    3.8933   -3.7570    0.0000 O   0  0
    2.5951   -3.0039    0.0000 N   0  0
    2.5973   -1.5031    0.0000 C   0  0
    3.6375   -0.9049    0.0000 O   0  0
    1.2990   -0.7500    0.0000 C   0  0
    1.2990    0.7500    0.0000 C   0  0
    0.0000    1.5000    0.0000 C   0  0
   -1.2990    0.7500    0.0000 C   0  0
   -2.5988    1.5004    0.0000 C   0  0
   -2.5998    3.0012    0.0000 N   0  3
   -3.8995    3.7516    0.0000 C   0  0
   -3.9005    5.2525    0.0000 C   0  0
   -5.2000    6.0016    0.0000 C   0  0
   -5.2009    7.5016    0.0000 C   0  0
   -3.9024    8.2525    0.0000 C   0  0
   -2.6029    7.5033    0.0000 C   0  0
   -1.5640    8.1039    0.0000 Cl  0  0
   -2.6019    6.0033    0.0000 C   0  0
   -1.2990   -0.7500    0.0000 C   0  0
    0.0000   -1.5000    0.0000 C   0  0
    2.1651    1.2500    0.0000 H   0  0
    0.0000    2.5000    0.0000 H   0  0
   -3.4647    1.0001    0.0000 H   0  0
   -2.5986    0.5004    0.0000 H   0  0
   -4.7654    3.2514    0.0000 H   0  0
   -4.7658    4.2512    0.0000 H   0  0
   -6.0657    5.5011    0.0000 H   0  0
   -6.0673    8.0011    0.0000 H   0  0
   -3.9030    9.2525    0.0000 H   0  0
   -1.7356    5.5038    0.0000 H   0  0
   -2.1651   -1.2500    0.0000 H   0  0
    0.0000   -2.5000    0.0000 H   0  0
    3.8919   -4.7570    0.0000 H   0  0
    1.7282   -3.5024    0.0000 H   0  0
   -1.7339    3.5015    0.0000 H   0  0
   -1.7335    2.5016    0.0000 H   0  0
  1  2  1  0
  2  3  1  0
  3  4  2  0
  3  5  1  0
  5  6  2  0
  6  7  1  0
  7  8  2  0
  8  9  1  0
  9 10  1  0
 10 11  1  0
 11 12  1  0
 12 13  2  0
 13 14  1  0
 14 15  2  0
 15 16  1  0
 16 17  1  0
 16 18  2  0
 12 18  1  0
  8 19  1  0
 19 20  2  0
  5 20  1  0
  6 21  1  0
  7 22  1  0
  9 23  1  0
  9 24  1  0
 11 25  1  0
 11 26  1  0
 13 27  1  0
 14 28  1  0
 15 29  1  0
 18 30  1  0
 19 31  1  0
 20 32  1  0
  1 33  1  0
  2 34  1  0
 10 35  1  0
 10 36  1  0
M  CHG  1  10   1
M  END
> <Name>
CHEMBL472663

> <ALogP>
1.399

> <Molecular_Weight>
291.75274

> <Num_H_Acceptors>
2

> <Num_H_Donors>
3

> <Num_RotatableBonds>
5

> <FormalCharge>
1

$$$$
CHEMBL1808620
  SciTegic01131515592D

 42 44  0  0  0  0            999 V2000
   14.5487   -5.6681    0.0000 O   0  0
   13.2336   -4.9450    0.0000 N   0  0
   11.9493   -5.7217    0.0000 C   0  0
   11.9741   -6.9214    0.0000 O   0  0
   10.6341   -4.9986    0.0000 C   0  0
    9.3499   -5.7753    0.0000 C   0  0
    8.0347   -5.0523    0.0000 C   0  0
    6.7595   -5.8328    0.0000 C   0  0
    5.4211   -5.1130    0.0000 C   0  0
    5.3984   -3.6092    0.0000 C   0  0
    4.2673   -2.6342    0.0000 C   0  0
    4.8523   -1.2501    0.0000 N   0  0
    6.3199   -1.3778    0.0000 C   0  0
    6.6736   -2.8287    0.0000 C   0  0
    8.0025   -3.5330    0.0000 C   0  0
    4.0872    0.0382    0.0000 C   0  0
    2.8873    0.0232    0.0000 O   0  0
    4.8208    1.3475    0.0000 C   0  0
    3.3597    1.4302    0.0000 C   0  0
    3.0288    2.8933    0.0000 C   0  0
    4.3180    3.6601    0.0000 C   0  0
    5.4456    2.6710    0.0000 C   0  0
   10.6135   -3.9988    0.0000 H   0  0
    9.3705   -6.7750    0.0000 H   0  0
    6.7874   -6.8324    0.0000 H   0  0
    4.5666   -5.6324    0.0000 H   0  0
    3.9919   -3.5955    0.0000 H   0  0
    3.5940   -1.8948    0.0000 H   0  0
    7.2998   -1.5776    0.0000 H   0  0
    5.9740   -0.4395    0.0000 H   0  0
    8.8538   -3.0083    0.0000 H   0  0
    5.8208    1.3607    0.0000 H   0  0
    3.7104    0.4938    0.0000 H   0  0
    2.3781    1.6214    0.0000 H   0  0
    2.2365    2.2831    0.0000 H   0  0
    2.9261    3.8880    0.0000 H   0  0
    3.4928    4.2250    0.0000 H   0  0
    5.2323    4.0651    0.0000 H   0  0
    6.1011    1.9158    0.0000 H   0  0
    5.7462    3.6247    0.0000 H   0  0
   15.4044   -5.1506    0.0000 H   0  0
   13.2130   -3.9452    0.0000 H   0  0
  1  2  1  0
  2  3  1  0
  3  4  2  0
  3  5  1  0
  5  6  2  0
  6  7  1  0
  7  8  2  0
  8  9  1  0
  9 10  2  0
 10 11  1  0
 11 12  1  0
 12 13  1  0
 13 14  1  0
 10 14  1  0
 14 15  2  0
  7 15  1  0
 12 16  1  0
 16 17  2  0
 16 18  1  0
 18 19  1  0
 19 20  1  0
 20 21  1  0
 21 22  1  0
 18 22  1  0
  5 23  1  0
  6 24  1  0
  8 25  1  0
  9 26  1  0
 11 27  1  0
 11 28  1  0
 13 29  1  0
 13 30  1  0
 15 31  1  0
 18 32  1  0
 19 33  1  0
 19 34  1  0
 20 35  1  0
 20 36  1  0
 21 37  1  0
 21 38  1  0
 22 39  1  0
 22 40  1  0
  1 41  1  0
  2 42  1  0
M  END
> <Name>
CHEMBL1808620

> <ALogP>
2.069

> <Molecular_Weight>
300.3523

> <Num_H_Acceptors>
3

> <Num_H_Donors>
2

> <Num_RotatableBonds>
3

> <FormalCharge>
0

$$$$
CHEMBL519134
  SciTegic01131515592D

 40 41  0  0  0  0            999 V2000
    6.4855   -8.2648    0.0000 C   0  0
    5.1873   -7.5117    0.0000 C   0  0
    5.1894   -6.0109    0.0000 S   0  0
    3.8912   -5.2578    0.0000 C   0  0
    2.8509   -5.8560    0.0000 S   0  0
    3.8933   -3.7570    0.0000 S   0  0
    2.5951   -3.0039    0.0000 C   0  0
    2.5973   -1.5031    0.0000 C   0  0
    3.6375   -0.9049    0.0000 O   0  0
    1.2990   -0.7500    0.0000 C   0  0
    1.2990    0.7500    0.0000 C   0  0
    0.0000    1.5000    0.0000 C   0  0
   -1.2990    0.7500    0.0000 C   0  0
   -1.2990   -0.7500    0.0000 C   0  0
   -2.5972   -1.5031    0.0000 N   0  0
   -2.5951   -3.0039    0.0000 C   0  0
   -1.5548   -3.6021    0.0000 O   0  0
   -3.8933   -3.7570    0.0000 C   0  0
   -3.8934   -5.2570    0.0000 C   0  0
   -5.1924   -6.0071    0.0000 C   0  0
   -6.4914   -5.2571    0.0000 C   0  0
   -6.4915   -3.7571    0.0000 N   0  0
   -5.1925   -3.0071    0.0000 C   0  0
    0.0000   -1.5000    0.0000 C   0  0
    6.4840   -9.2648    0.0000 H   0  0
    7.3524   -7.7663    0.0000 H   0  0
    7.3507   -8.7662    0.0000 H   0  0
    4.3204   -8.0102    0.0000 H   0  0
    4.3220   -7.0104    0.0000 H   0  0
    1.7282   -3.5024    0.0000 H   0  0
    2.5932   -4.0039    0.0000 H   0  0
    2.1651    1.2500    0.0000 H   0  0
    0.0000    2.5000    0.0000 H   0  0
   -2.1651    1.2500    0.0000 H   0  0
   -3.0273   -5.7570    0.0000 H   0  0
   -5.1924   -7.0071    0.0000 H   0  0
   -7.3574   -5.7571    0.0000 H   0  0
   -5.1925   -2.0071    0.0000 H   0  0
    0.0000   -2.5000    0.0000 H   0  0
   -3.4641   -1.0046    0.0000 H   0  0
  1  2  1  0
  2  3  1  0
  3  4  1  0
  4  5  2  0
  4  6  1  0
  6  7  1  0
  7  8  1  0
  8  9  2  0
  8 10  1  0
 10 11  2  0
 11 12  1  0
 12 13  2  0
 13 14  1  0
 14 15  1  0
 15 16  1  0
 16 17  2  0
 16 18  1  0
 18 19  2  0
 19 20  1  0
 20 21  2  0
 21 22  1  0
 22 23  2  0
 18 23  1  0
 14 24  2  0
 10 24  1  0
  1 25  1  0
  1 26  1  0
  1 27  1  0
  2 28  1  0
  2 29  1  0
  7 30  1  0
  7 31  1  0
 11 32  1  0
 12 33  1  0
 13 34  1  0
 19 35  1  0
 20 36  1  0
 21 37  1  0
 23 38  1  0
 24 39  1  0
 15 40  1  0
M  END
> <Name>
CHEMBL519134

> <ALogP>
3.918

> <Molecular_Weight>
376.51614

> <Num_H_Acceptors>
6

> <Num_H_Donors>
1

> <Num_RotatableBonds>
8

> <FormalCharge>
0

$$$$
CHEMBL2047675
  SciTegic01131515592D

 29 29  0  0  0  0            999 V2000
    2.5973   -1.5031    0.0000 O   0  0
    1.2990   -0.7500    0.0000 C   0  0
    1.2990    0.7500    0.0000 C   0  0
    0.0000    1.5000    0.0000 C   0  0
   -1.2990    0.7500    0.0000 C   0  0
   -2.5988    1.5004    0.0000 C   0  0
   -2.5998    3.0012    0.0000 C   0  0
   -1.5607    3.6016    0.0000 O   0  0
   -3.8995    3.7516    0.0000 C   0  0
   -4.9385    3.1513    0.0000 O   0  0
   -3.9005    5.2525    0.0000 N   0  0
   -5.2002    6.0029    0.0000 C   0  0
   -5.2012    7.5037    0.0000 C   0  0
   -6.5009    8.2541    0.0000 S   0  0
   -1.2990   -0.7500    0.0000 C   0  0
    0.0000   -1.5000    0.0000 C   0  0
    0.0000   -2.7000    0.0000 Br  0  0
    2.1651    1.2500    0.0000 H   0  0
    0.0000    2.5000    0.0000 H   0  0
   -3.4647    1.0001    0.0000 H   0  0
   -3.4651    2.0000    0.0000 H   0  0
   -6.0661    5.5026    0.0000 H   0  0
   -5.2001    5.0029    0.0000 H   0  0
   -4.3353    8.0040    0.0000 H   0  0
   -5.2013    8.5037    0.0000 H   0  0
   -2.1651   -1.2500    0.0000 H   0  0
    2.5958   -2.5031    0.0000 H   0  0
   -3.0346    5.7527    0.0000 H   0  0
   -6.5016    9.2541    0.0000 H   0  0
  1  2  1  0
  2  3  2  0
  3  4  1  0
  4  5  2  0
  5  6  1  0
  6  7  1  0
  7  8  2  0
  7  9  1  0
  9 10  2  0
  9 11  1  0
 11 12  1  0
 12 13  1  0
 13 14  1  0
  5 15  1  0
 15 16  2  0
  2 16  1  0
 16 17  1  0
  3 18  1  0
  4 19  1  0
  6 20  1  0
  6 21  1  0
 12 22  1  0
 12 23  1  0
 13 24  1  0
 13 25  1  0
 15 26  1  0
  1 27  1  0
 11 28  1  0
 14 29  1  0
M  END
> <Name>
CHEMBL2047675

> <ALogP>
1.887

> <Molecular_Weight>
318.18688

> <Num_H_Acceptors>
4

> <Num_H_Donors>
3

> <Num_RotatableBonds>
5

> <FormalCharge>
0

$$$$
CHEMBL235918
  SciTegic01131515592D

 56 56  0  0  1  0            999 V2000
   -0.5521  -10.2950    0.0000 C   0  0
   -1.4343   -9.0809    0.0000 C   0  0
   -2.0580  -10.4780    0.0000 C   0  0
   -2.9268   -9.2384    0.0000 C   0  0
   -0.8249   -7.7094    0.0000 N   0  0
   -1.7072   -6.4953    0.0000 C   0  0
   -2.9006   -6.6212    0.0000 S   0  0
   -1.0977   -5.1238    0.0000 N   0  0
   -1.9800   -3.9097    0.0000 C   0  0  1  0  0  0
   -3.4725   -4.0672    0.0000 C   0  0
   -4.0833   -5.4382    0.0000 C   0  0
   -5.5758   -5.5957    0.0000 C   0  0
   -6.1865   -6.9666    0.0000 C   0  0
   -7.6791   -7.1241    0.0000 C   0  0
   -8.2898   -8.4950    0.0000 S   0  0
   -1.3692   -2.5388    0.0000 C   0  0
   -2.0747   -1.5681    0.0000 O   0  0
    0.1233   -2.3813    0.0000 N   0  0
    0.7500   -1.0323    0.0000 C   0  0
    1.2135    0.3943    0.0000 C   0  0
    0.0000    1.2760    0.0000 C   0  0
   -1.2135    0.3943    0.0000 C   0  0
   -0.7500   -1.0323    0.0000 C   0  0
   -0.9581  -11.2089    0.0000 H   0  0
    0.0362  -11.1037    0.0000 H   0  0
    0.4424  -10.1901    0.0000 H   0  0
   -3.0526  -10.5821    0.0000 H   0  0
   -2.4653  -11.3913    0.0000 H   0  0
   -1.4708  -11.2874    0.0000 H   0  0
   -3.3337  -10.1519    0.0000 H   0  0
   -3.5147   -8.4295    0.0000 H   0  0
   -3.9213   -9.3429    0.0000 H   0  0
   -0.9854   -3.8053    0.0000 H   0  0
   -3.0660   -3.1536    0.0000 H   0  0
   -4.0604   -3.2583    0.0000 H   0  0
   -3.0887   -5.3337    0.0000 H   0  0
   -3.4954   -6.2471    0.0000 H   0  0
   -5.1693   -4.6820    0.0000 H   0  0
   -6.1637   -4.7867    0.0000 H   0  0
   -5.1920   -6.8621    0.0000 H   0  0
   -5.5987   -7.7756    0.0000 H   0  0
   -8.6736   -7.2286    0.0000 H   0  0
   -8.2669   -6.3151    0.0000 H   0  0
    1.7427   -0.9120    0.0000 H   0  0
    1.9466   -0.2859    0.0000 H   0  0
    1.4069    1.3754    0.0000 H   0  0
    0.8734    1.7629    0.0000 H   0  0
   -0.8734    1.7631    0.0000 H   0  0
   -1.4068    1.3754    0.0000 H   0  0
   -1.9467   -0.2858    0.0000 H   0  0
   -1.7428   -0.9129    0.0000 H   0  0
   -0.3297   -1.9397    0.0000 H   0  0
    0.1696   -7.6045    0.0000 H   0  0
   -0.1033   -5.0189    0.0000 H   0  0
   -9.2843   -8.6000    0.0000 H   0  0
    0.7112   -3.1903    0.0000 H   0  0
  1  2  1  0
  2  3  1  0
  2  4  1  0
  2  5  1  0
  5  6  1  0
  6  7  2  0
  6  8  1  0
  9  8  1  0
  9 10  1  0
 10 11  1  0
 11 12  1  0
 12 13  1  0
 13 14  1  0
 14 15  1  0
  9 16  1  0
 16 17  2  0
 16 18  1  0
 18 19  1  0
 19 20  1  0
 20 21  1  0
 21 22  1  0
 22 23  1  0
 19 23  1  0
  1 24  1  0
  1 25  1  0
  1 26  1  0
  3 27  1  0
  3 28  1  0
  3 29  1  0
  4 30  1  0
  4 31  1  0
  4 32  1  0
  9 33  1  6
 10 34  1  0
 10 35  1  0
 11 36  1  0
 11 37  1  0
 12 38  1  0
 12 39  1  0
 13 40  1  0
 13 41  1  0
 14 42  1  0
 14 43  1  0
 19 44  1  0
 20 45  1  0
 20 46  1  0
 21 47  1  0
 21 48  1  0
 22 49  1  0
 22 50  1  0
 23 51  1  0
 23 52  1  0
  5 53  1  0
  8 54  1  0
 15 55  1  0
 18 56  1  0
M  END
> <Name>
CHEMBL235918

> <ALogP>
4.173

> <Molecular_Weight>
359.59342

> <Num_H_Acceptors>
3

> <Num_H_Donors>
4

> <Num_RotatableBonds>
11

> <FormalCharge>
0

$$$$
CHEMBL168221
  SciTegic01131515592D

 52 56  0  0  0  0            999 V2000
   -1.7261   14.4584    0.0000 N   0  0
   -2.7776   15.0366    0.0000 C   0  0
   -2.8089   16.5362    0.0000 C   0  0
   -4.1233   17.2590    0.0000 C   0  0
   -5.4064   16.4820    0.0000 C   0  0
   -5.3751   14.9823    0.0000 C   0  0
   -4.0607   14.2595    0.0000 C   0  0
   -4.0263   12.7591    0.0000 N   0  0
   -2.7102   12.0378    0.0000 C   0  0
   -1.6848   12.6611    0.0000 O   0  0
   -2.6758   10.5374    0.0000 C   0  0
   -1.3597    9.8161    0.0000 C   0  0
   -1.3253    8.3156    0.0000 C   0  0
   -0.0109    7.5929    0.0000 C   0  0
    0.0203    6.0932    0.0000 C   0  0
   -1.2628    5.3162    0.0000 C   0  0
   -1.2345    3.8156    0.0000 N   0  0
   -2.5194    3.0401    0.0000 S   0  0
   -3.5700    3.6201    0.0000 O   0  0
   -2.5426    4.2399    0.0000 O   0  0
   -2.4915    1.5389    0.0000 C   0  0
   -3.7006    0.8244    0.0000 C   0  0
   -3.7006   -0.6045    0.0000 C   0  0
   -2.4915   -1.3190    0.0000 C   0  0
   -1.2274   -0.6045    0.0000 C   0  0
    0.0000   -1.3190    0.0000 O   0  0
    1.2274   -0.6045    0.0000 C   0  0
    2.4732   -1.3190    0.0000 C   0  0
    3.7372   -0.6045    0.0000 C   0  0
    3.7372    0.8244    0.0000 C   0  0
    2.4732    1.5389    0.0000 C   0  0
    1.2274    0.8244    0.0000 C   0  0
   -1.2274    0.8244    0.0000 C   0  0
   -2.5772    6.0391    0.0000 C   0  0
   -2.6084    7.5387    0.0000 C   0  0
   -1.9535   17.0542    0.0000 H   0  0
   -4.1442   18.2587    0.0000 H   0  0
   -6.2827   16.9638    0.0000 H   0  0
   -6.2305   14.4644    0.0000 H   0  0
   -3.5303   10.0179    0.0000 H   0  0
   -0.5052   10.3355    0.0000 H   0  0
    0.8445    8.1108    0.0000 H   0  0
    0.8966    5.6114    0.0000 H   0  0
   -4.5691    1.3200    0.0000 H   0  0
   -4.5691   -1.1002    0.0000 H   0  0
   -2.5011   -2.3190    0.0000 H   0  0
    2.4700   -2.3190    0.0000 H   0  0
    4.6009   -1.1085    0.0000 H   0  0
    4.6009    1.3283    0.0000 H   0  0
    2.4700    2.5388    0.0000 H   0  0
   -3.4326    5.5211    0.0000 H   0  0
   -3.4847    8.0206    0.0000 H   0  0
  1  2  1  0
  2  3  2  0
  3  4  1  0
  4  5  2  0
  5  6  1  0
  6  7  2  0
  2  7  1  0
  7  8  1  0
  8  9  1  0
  9 10  2  0
  9 11  1  0
 11 12  2  0
 12 13  1  0
 13 14  2  0
 14 15  1  0
 15 16  2  0
 16 17  1  0
 17 18  1  0
 18 19  2  0
 18 20  2  0
 18 21  1  0
 21 22  2  0
 22 23  1  0
 23 24  2  0
 24 25  1  0
 25 26  1  0
 26 27  1  0
 27 28  2  0
 28 29  1  0
 29 30  2  0
 30 31  1  0
 31 32  2  0
 27 32  1  0
 32 33  1  0
 21 33  1  0
 25 33  2  0
 16 34  1  0
 34 35  2  0
 13 35  1  0
  3 36  1  0
  4 37  1  0
  5 38  1  0
  6 39  1  0
 11 40  1  0
 12 41  1  0
 14 42  1  0
 15 43  1  0
 22 44  1  0
 23 45  1  0
 24 46  1  0
 28 47  1  0
 29 48  1  0
 30 49  1  0
 31 50  1  0
 34 51  1  0
 35 52  1  0
M  END
> <Name>
CHEMBL168221

> <ALogP>
4.327

> <Molecular_Weight>
483.53834

> <Num_H_Acceptors>
4

> <Num_H_Donors>
3

> <Num_RotatableBonds>
6

> <FormalCharge>
0

$$$$
CHEMBL2047619
  SciTegic01131515592D

 49 52  0  0  0  0            999 V2000
    3.6375   -0.9049    0.0000 O   0  5
    2.5973   -1.5031    0.0000 N   0  3
    2.5956   -2.7031    0.0000 O   0  0
    1.2990   -0.7500    0.0000 C   0  0
    1.2990    0.7500    0.0000 C   0  0
    0.0000    1.5000    0.0000 C   0  0
   -1.2990    0.7500    0.0000 C   0  0
   -1.2990   -0.7500    0.0000 C   0  0
    0.0000   -1.5000    0.0000 C   0  0
   -2.5987    1.5004    0.0000 C   0  0
   -3.9492    0.8772    0.0000 N   0  0
   -4.9546    1.9903    0.0000 N   0  0
   -4.2067    3.2905    0.0000 C   0  0
   -2.7390    2.9810    0.0000 C   0  0
   -1.6175    3.9744    0.0000 C   0  0
   -1.9167    5.4451    0.0000 C   0  0
   -3.3396    5.9222    0.0000 C   0  0
   -4.2386    5.1274    0.0000 O   0  0
   -3.6388    7.3929    0.0000 N   0  0
   -5.0618    7.8701    0.0000 C   0  0
   -5.3630    9.3396    0.0000 C   0  0
   -6.7861    9.8135    0.0000 C   0  0
   -7.9082    8.8181    0.0000 C   0  0
   -9.0467    9.1972    0.0000 Br  0  0
   -7.6071    7.3486    0.0000 C   0  0
   -6.1839    6.8746    0.0000 C   0  0
   -6.4469    1.8311    0.0000 C   0  0
   -7.1532    0.5134    0.0000 C   0  0
   -8.6524    0.4669    0.0000 C   0  0
   -9.4423    1.7421    0.0000 C   0  0
   -8.7329    3.0637    0.0000 C   0  0
   -7.2337    3.1102    0.0000 C   0  0
    2.1651    1.2500    0.0000 H   0  0
    0.0000    2.5000    0.0000 H   0  0
   -2.1651   -1.2500    0.0000 H   0  0
    0.0000   -2.5000    0.0000 H   0  0
   -4.6149    4.2034    0.0000 H   0  0
   -0.6690    3.6574    0.0000 H   0  0
   -1.1675    6.1075    0.0000 H   0  0
   -4.6149   10.0032    0.0000 H   0  0
   -6.9868   10.7932    0.0000 H   0  0
   -8.3551    6.6849    0.0000 H   0  0
   -5.9832    5.8949    0.0000 H   0  0
   -6.6263   -0.3366    0.0000 H   0  0
   -9.1254   -0.4142    0.0000 H   0  0
  -10.4418    1.7111    0.0000 H   0  0
   -9.2595    3.9138    0.0000 H   0  0
   -6.7593    3.9906    0.0000 H   0  0
   -2.8896    8.0553    0.0000 H   0  0
  1  2  1  0
  2  3  2  0
  2  4  1  0
  4  5  2  0
  5  6  1  0
  6  7  2  0
  7  8  1  0
  8  9  2  0
  4  9  1  0
  7 10  1  0
 10 11  2  0
 11 12  1  0
 12 13  1  0
 13 14  2  0
 10 14  1  0
 14 15  1  0
 15 16  2  0
 16 17  1  0
 17 18  2  0
 17 19  1  0
 19 20  1  0
 20 21  2  0
 21 22  1  0
 22 23  2  0
 23 24  1  0
 23 25  1  0
 25 26  2  0
 20 26  1  0
 12 27  1  0
 27 28  2  0
 28 29  1  0
 29 30  2  0
 30 31  1  0
 31 32  2  0
 27 32  1  0
  5 33  1  0
  6 34  1  0
  8 35  1  0
  9 36  1  0
 13 37  1  0
 15 38  1  0
 16 39  1  0
 21 40  1  0
 22 41  1  0
 25 42  1  0
 26 43  1  0
 28 44  1  0
 29 45  1  0
 30 46  1  0
 31 47  1  0
 32 48  1  0
 19 49  1  0
M  CHG  2   1  -1   2   1
M  END
> <Name>
CHEMBL2047619

> <ALogP>
5.898

> <Molecular_Weight>
489.32078

> <Num_H_Acceptors>
4

> <Num_H_Donors>
1

> <Num_RotatableBonds>
6

> <FormalCharge>
0

$$$$
CHEMBL445518
  SciTegic01131515592D

 33 33  0  0  0  0            999 V2000
    6.4855   -8.2648    0.0000 C   0  0
    5.1873   -7.5117    0.0000 C   0  0
    5.1894   -6.0109    0.0000 C   0  0
    3.8912   -5.2578    0.0000 C   0  0
    2.8509   -5.8560    0.0000 S   0  0
    3.8933   -3.7570    0.0000 S   0  0
    2.5951   -3.0039    0.0000 C   0  0
    2.5973   -1.5031    0.0000 C   0  0
    3.6375   -0.9049    0.0000 O   0  0
    1.2990   -0.7500    0.0000 C   0  0
    1.2990    0.7500    0.0000 C   0  0
    0.0000    1.5000    0.0000 C   0  0
   -1.2990    0.7500    0.0000 C   0  0
   -2.6003    1.4977    0.0000 O   0  0
   -3.8990    0.7455    0.0000 C   0  0
   -1.2990   -0.7500    0.0000 C   0  0
    0.0000   -1.5000    0.0000 C   0  0
    6.4840   -9.2648    0.0000 H   0  0
    7.3524   -7.7663    0.0000 H   0  0
    7.3507   -8.7662    0.0000 H   0  0
    4.3204   -8.0102    0.0000 H   0  0
    4.3220   -7.0104    0.0000 H   0  0
    6.0563   -5.5124    0.0000 H   0  0
    5.1913   -5.0109    0.0000 H   0  0
    1.7282   -3.5024    0.0000 H   0  0
    2.5932   -4.0039    0.0000 H   0  0
    2.1651    1.2500    0.0000 H   0  0
    0.0000    2.5000    0.0000 H   0  0
   -4.7661    1.2437    0.0000 H   0  0
   -3.8973   -0.2545    0.0000 H   0  0
   -4.7641    0.2438    0.0000 H   0  0
   -2.1651   -1.2500    0.0000 H   0  0
    0.0000   -2.5000    0.0000 H   0  0
  1  2  1  0
  2  3  1  0
  3  4  1  0
  4  5  2  0
  4  6  1  0
  6  7  1  0
  7  8  1  0
  8  9  2  0
  8 10  1  0
 10 11  2  0
 11 12  1  0
 12 13  2  0
 13 14  1  0
 14 15  1  0
 13 16  1  0
 16 17  2  0
 10 17  1  0
  1 18  1  0
  1 19  1  0
  1 20  1  0
  2 21  1  0
  2 22  1  0
  3 23  1  0
  3 24  1  0
  7 25  1  0
  7 26  1  0
 11 27  1  0
 12 28  1  0
 15 29  1  0
 15 30  1  0
 15 31  1  0
 16 32  1  0
 17 33  1  0
M  END
> <Name>
CHEMBL445518

> <ALogP>
3.84

> <Molecular_Weight>
268.39494

> <Num_H_Acceptors>
4

> <Num_H_Donors>
0

> <Num_RotatableBonds>
7

> <FormalCharge>
0

$$$$
CHEMBL515285
  SciTegic01131515592D

 60 62  0  0  0  0            999 V2000
    2.5973   -1.5031    0.0000 N   0  0
    1.2990   -0.7500    0.0000 C   0  0
    1.2990    0.7500    0.0000 C   0  0
    0.0000    1.5000    0.0000 C   0  0
   -1.2990    0.7500    0.0000 C   0  0
   -1.2990   -0.7500    0.0000 C   0  0
    0.0000   -1.5000    0.0000 C   0  0
    0.0031   -3.0008    0.0000 N   0  0
    1.3039   -3.7494    0.0000 C   0  0
    2.3421   -3.1476    0.0000 O   0  0
    1.3070   -5.2502    0.0000 C   0  0
    2.6078   -5.9988    0.0000 C   0  0
    2.6109   -7.4996    0.0000 C   0  0
    3.9117   -8.2481    0.0000 C   0  0
    3.9148   -9.7490    0.0000 C   0  0
    5.2157  -10.4975    0.0000 C   0  0
    5.2188  -11.9983    0.0000 C   0  0
    4.1806  -12.6002    0.0000 O   0  0
    6.5196  -12.7469    0.0000 N   0  0
    6.5227  -14.2477    0.0000 C   0  0
    7.8217  -14.9978    0.0000 C   0  0
    7.8217  -16.4978    0.0000 C   0  0
    6.5227  -17.2478    0.0000 C   0  0
    5.2237  -16.4979    0.0000 C   0  0
    5.2236  -14.9979    0.0000 C   0  0
    3.9240  -17.2483    0.0000 C   0  0
    3.9216  -18.7483    0.0000 C   0  0
    2.6214  -19.4963    0.0000 C   0  0
    1.3235  -18.7443    0.0000 C   0  0
    1.3258  -17.2443    0.0000 C   0  0
    2.6260  -16.4963    0.0000 C   0  0
    2.1651    1.2500    0.0000 H   0  0
    0.0000    2.5000    0.0000 H   0  0
   -2.1651    1.2500    0.0000 H   0  0
   -2.1651   -1.2500    0.0000 H   0  0
    0.4419   -5.7517    0.0000 H   0  0
    0.4400   -4.7519    0.0000 H   0  0
    3.4730   -5.4973    0.0000 H   0  0
    2.6062   -4.9988    0.0000 H   0  0
    1.7458   -8.0011    0.0000 H   0  0
    1.7439   -7.0012    0.0000 H   0  0
    4.7769   -7.7466    0.0000 H   0  0
    3.9102   -7.2481    0.0000 H   0  0
    3.0497  -10.2505    0.0000 H   0  0
    3.0479   -9.2506    0.0000 H   0  0
    6.0808   -9.9960    0.0000 H   0  0
    6.0826  -10.9959    0.0000 H   0  0
    8.6877  -14.4978    0.0000 H   0  0
    8.6878  -16.9978    0.0000 H   0  0
    6.5228  -18.2478    0.0000 H   0  0
    4.3576  -14.4979    0.0000 H   0  0
    4.7868  -19.2497    0.0000 H   0  0
    2.6198  -20.4963    0.0000 H   0  0
    0.4567  -19.2429    0.0000 H   0  0
    0.4606  -16.7429    0.0000 H   0  0
    2.6276  -15.4963    0.0000 H   0  0
    2.5958   -2.5031    0.0000 H   0  0
    3.4642   -1.0046    0.0000 H   0  0
   -0.8621   -3.5023    0.0000 H   0  0
    7.3847  -12.2454    0.0000 H   0  0
  1  2  1  0
  2  3  2  0
  3  4  1  0
  4  5  2  0
  5  6  1  0
  6  7  2  0
  2  7  1  0
  7  8  1  0
  8  9  1  0
  9 10  2  0
  9 11  1  0
 11 12  1  0
 12 13  1  0
 13 14  1  0
 14 15  1  0
 15 16  1  0
 16 17  1  0
 17 18  2  0
 17 19  1  0
 19 20  1  0
 20 21  2  0
 21 22  1  0
 22 23  2  0
 23 24  1  0
 24 25  2  0
 20 25  1  0
 24 26  1  0
 26 27  2  0
 27 28  1  0
 28 29  2  0
 29 30  1  0
 30 31  2  0
 26 31  1  0
  3 32  1  0
  4 33  1  0
  5 34  1  0
  6 35  1  0
 11 36  1  0
 11 37  1  0
 12 38  1  0
 12 39  1  0
 13 40  1  0
 13 41  1  0
 14 42  1  0
 14 43  1  0
 15 44  1  0
 15 45  1  0
 16 46  1  0
 16 47  1  0
 21 48  1  0
 22 49  1  0
 23 50  1  0
 25 51  1  0
 27 52  1  0
 28 53  1  0
 29 54  1  0
 30 55  1  0
 31 56  1  0
  1 57  1  0
  1 58  1  0
  8 59  1  0
 19 60  1  0
M  END
> <Name>
CHEMBL515285

> <ALogP>
4.547

> <Molecular_Weight>
415.52736

> <Num_H_Acceptors>
3

> <Num_H_Donors>
3

> <Num_RotatableBonds>
10

> <FormalCharge>
0

$$$$
CHEMBL481703
  SciTegic01131515592D

 53 56  0  0  0  0            999 V2000
  -10.4391   16.9385    0.0000 C   0  0
   -9.8367   15.5639    0.0000 C   0  0
  -10.7252   14.3543    0.0000 S   0  0
  -10.1228   12.9797    0.0000 C   0  0
   -8.9301   12.8477    0.0000 S   0  0
  -11.0113   11.7701    0.0000 S   0  0
  -10.4089   10.3955    0.0000 C   0  0
  -11.2974    9.1860    0.0000 C   0  0
  -12.4901    9.3180    0.0000 O   0  0
  -10.6960    7.8137    0.0000 C   0  0
  -11.4509    6.5175    0.0000 C   0  0
  -10.4514    5.3990    0.0000 C   0  0
   -9.0977    6.0149    0.0000 C   0  0
   -9.2300    7.4963    0.0000 S   0  0
   -7.7996    5.2617    0.0000 C   0  0
   -7.8029    3.7617    0.0000 C   0  0
   -6.5055    3.0088    0.0000 C   0  0
   -5.2049    3.7560    0.0000 C   0  0
   -3.9067    3.0027    0.0000 C   0  0
   -3.9091    1.5019    0.0000 N   0  0
   -2.6111    0.7486    0.0000 C   0  0
   -2.6111   -0.7486    0.0000 C   0  0
   -1.2964   -1.4973    0.0000 N   0  0
    0.0000   -0.7486    0.0000 C   0  0
    1.2964   -1.4973    0.0000 C   0  0
    2.5929   -0.7486    0.0000 C   0  0
    2.5929    0.7486    0.0000 C   0  0
    1.2964    1.4973    0.0000 C   0  0
    0.0000    0.7486    0.0000 C   0  0
   -1.2964    1.4973    0.0000 C   0  0
   -5.2016    5.2560    0.0000 C   0  0
   -6.4990    6.0088    0.0000 N   0  0
   -9.8471   17.7445    0.0000 H   0  0
  -11.4330   17.0486    0.0000 H   0  0
  -10.8409   17.8542    0.0000 H   0  0
   -8.8428   15.4539    0.0000 H   0  0
   -9.4349   14.6482    0.0000 H   0  0
   -9.4150   10.2855    0.0000 H   0  0
   -9.8165   11.2012    0.0000 H   0  0
  -12.4458    6.4167    0.0000 H   0  0
  -10.6572    4.4204    0.0000 H   0  0
   -8.6700    3.2636    0.0000 H   0  0
   -6.5077    2.0088    0.0000 H   0  0
   -3.0398    3.5011    0.0000 H   0  0
   -3.0416    2.5013    0.0000 H   0  0
   -3.4756   -1.2512    0.0000 H   0  0
    1.2964   -2.4973    0.0000 H   0  0
    3.4589   -1.2486    0.0000 H   0  0
    3.4589    1.2486    0.0000 H   0  0
    1.2964    2.4973    0.0000 H   0  0
   -1.2934    2.4973    0.0000 H   0  0
   -4.3344    5.7541    0.0000 H   0  0
   -4.7760    1.0035    0.0000 H   0  0
  1  2  1  0
  2  3  1  0
  3  4  1  0
  4  5  2  0
  4  6  1  0
  6  7  1  0
  7  8  1  0
  8  9  2  0
  8 10  1  0
 10 11  2  0
 11 12  1  0
 12 13  2  0
 13 14  1  0
 10 14  1  0
 13 15  1  0
 15 16  2  0
 16 17  1  0
 17 18  2  0
 18 19  1  0
 19 20  1  0
 20 21  1  0
 21 22  2  0
 22 23  1  0
 23 24  2  0
 24 25  1  0
 25 26  2  0
 26 27  1  0
 27 28  2  0
 28 29  1  0
 24 29  1  0
 29 30  2  0
 21 30  1  0
 18 31  1  0
 31 32  2  0
 15 32  1  0
  1 33  1  0
  1 34  1  0
  1 35  1  0
  2 36  1  0
  2 37  1  0
  7 38  1  0
  7 39  1  0
 11 40  1  0
 12 41  1  0
 16 42  1  0
 17 43  1  0
 19 44  1  0
 19 45  1  0
 22 46  1  0
 25 47  1  0
 26 48  1  0
 27 49  1  0
 28 50  1  0
 30 51  1  0
 31 52  1  0
 20 53  1  0
M  END
> <Name>
CHEMBL481703

> <ALogP>
6.904

> <Molecular_Weight>
495.70304

> <Num_H_Acceptors>
7

> <Num_H_Donors>
1

> <Num_RotatableBonds>
10

> <FormalCharge>
0

$$$$
CHEMBL497332
  SciTegic01131515592D

 38 40  0  0  0  0            999 V2000
   -5.2147   -0.7510    0.0000 C   0  0
   -5.2109    0.7498    0.0000 N   0  0
   -3.9106    1.4992    0.0000 C   0  0
   -2.6111    0.7486    0.0000 C   0  0
   -2.6111   -0.7486    0.0000 C   0  0
   -1.2964   -1.4973    0.0000 C   0  0
    0.0000   -0.7486    0.0000 C   0  0
    1.2964   -1.4973    0.0000 N   0  0
    2.5929   -0.7486    0.0000 C   0  0
    2.5929    0.7486    0.0000 C   0  0
    1.2964    1.4973    0.0000 N   0  0
    0.0000    0.7486    0.0000 C   0  0
   -1.2964    1.4973    0.0000 C   0  0
   -6.5106    1.5004    0.0000 C   0  0
   -6.5101    2.7004    0.0000 O   0  0
   -7.8109    0.7510    0.0000 C   0  0
   -9.1631    1.3703    0.0000 C   0  0
  -10.1654    0.2543    0.0000 C   0  0
   -9.4137   -1.0438    0.0000 C   0  0
   -7.9469   -0.7301    0.0000 S   0  0
  -10.0185   -2.4146    0.0000 C   0  0
  -11.2115   -2.5436    0.0000 O   0  0
   -9.1330   -3.6264    0.0000 C   0  0
   -9.6174   -4.7242    0.0000 F   0  0
   -8.4246   -4.5949    0.0000 F   0  0
   -7.9400   -3.4973    0.0000 F   0  0
   -6.0817   -1.2494    0.0000 H   0  0
   -4.3498   -1.2529    0.0000 H   0  0
   -5.2167   -1.7510    0.0000 H   0  0
   -3.9102    2.4992    0.0000 H   0  0
   -4.7763    1.9998    0.0000 H   0  0
   -3.4756   -1.2512    0.0000 H   0  0
   -1.2934   -2.4973    0.0000 H   0  0
    3.4589   -1.2486    0.0000 H   0  0
    3.4589    1.2486    0.0000 H   0  0
   -1.2934    2.4973    0.0000 H   0  0
   -9.3665    2.3494    0.0000 H   0  0
  -11.1600    0.3575    0.0000 H   0  0
  1  2  1  0
  2  3  1  0
  3  4  1  0
  4  5  2  0
  5  6  1  0
  6  7  2  0
  7  8  1  0
  8  9  2  0
  9 10  1  0
 10 11  2  0
 11 12  1  0
  7 12  1  0
 12 13  2  0
  4 13  1  0
  2 14  1  0
 14 15  2  0
 14 16  1  0
 16 17  2  0
 17 18  1  0
 18 19  2  0
 19 20  1  0
 16 20  1  0
 19 21  1  0
 21 22  2  0
 21 23  1  0
 23 24  1  0
 23 25  1  0
 23 26  1  0
  1 27  1  0
  1 28  1  0
  1 29  1  0
  3 30  1  0
  3 31  1  0
  5 32  1  0
  6 33  1  0
  9 34  1  0
 10 35  1  0
 13 36  1  0
 17 37  1  0
 18 38  1  0
M  END
> <Name>
CHEMBL497332

> <ALogP>
3.364

> <Molecular_Weight>
379.35628

> <Num_H_Acceptors>
4

> <Num_H_Donors>
0

> <Num_RotatableBonds>
5

> <FormalCharge>
0

$$$$
CHEMBL95510
  SciTegic01131515592D

 46 47  0  0  0  0            999 V2000
   -9.0975    7.5162    0.0000 C   0  0
   -7.7964    8.2641    0.0000 C   0  0
   -6.4983    7.5109    0.0000 C   0  0
   -6.5006    6.0101    0.0000 C   0  0
   -5.2025    5.2568    0.0000 C   0  0
   -5.2049    3.7560    0.0000 C   0  0
   -3.9067    3.0027    0.0000 C   0  0
   -3.9091    1.5019    0.0000 C   0  0
   -4.9494    0.9039    0.0000 O   0  0
   -2.6111    0.7486    0.0000 C   0  0
   -2.6111   -0.7486    0.0000 C   0  0
   -1.2964   -1.4973    0.0000 C   0  0
    0.0000   -0.7486    0.0000 C   0  0
    1.2964   -1.4973    0.0000 C   0  0
    2.5929   -0.7486    0.0000 C   0  0
    2.5929    0.7486    0.0000 C   0  0
    1.2964    1.4973    0.0000 C   0  0
    0.0000    0.7486    0.0000 C   0  0
   -1.2964    1.4973    0.0000 C   0  0
   -7.7941    9.7650    0.0000 C   0  0
   -6.7537   10.3630    0.0000 O   0  0
   -9.0922   10.5182    0.0000 N   0  0
   -9.0898   12.0190    0.0000 O   0  0
   -9.9629    8.0173    0.0000 H   0  0
   -9.9642    7.0174    0.0000 H   0  0
   -9.0990    6.5162    0.0000 H   0  0
   -6.9294    8.7625    0.0000 H   0  0
   -5.6313    8.0093    0.0000 H   0  0
   -5.6331    7.0094    0.0000 H   0  0
   -7.3676    5.5117    0.0000 H   0  0
   -6.5027    5.0101    0.0000 H   0  0
   -4.3356    5.7552    0.0000 H   0  0
   -4.3373    4.7553    0.0000 H   0  0
   -6.0718    3.2576    0.0000 H   0  0
   -5.2069    2.7560    0.0000 H   0  0
   -3.0398    3.5011    0.0000 H   0  0
   -3.0416    2.5013    0.0000 H   0  0
   -3.4756   -1.2512    0.0000 H   0  0
   -1.2934   -2.4973    0.0000 H   0  0
    1.2964   -2.4973    0.0000 H   0  0
    3.4589   -1.2486    0.0000 H   0  0
    3.4589    1.2486    0.0000 H   0  0
    1.2964    2.4973    0.0000 H   0  0
   -1.2934    2.4973    0.0000 H   0  0
   -9.9591   10.0198    0.0000 H   0  0
   -9.9548   12.5209    0.0000 H   0  0
  1  2  1  0
  2  3  1  0
  3  4  1  0
  4  5  1  0
  5  6  1  0
  6  7  1  0
  7  8  1  0
  8  9  2  0
  8 10  1  0
 10 11  2  0
 11 12  1  0
 12 13  2  0
 13 14  1  0
 14 15  2  0
 15 16  1  0
 16 17  2  0
 17 18  1  0
 13 18  1  0
 18 19  2  0
 10 19  1  0
  2 20  1  0
 20 21  2  0
 20 22  1  0
 22 23  1  0
  1 24  1  0
  1 25  1  0
  1 26  1  0
  2 27  1  0
  3 28  1  0
  3 29  1  0
  4 30  1  0
  4 31  1  0
  5 32  1  0
  5 33  1  0
  6 34  1  0
  6 35  1  0
  7 36  1  0
  7 37  1  0
 11 38  1  0
 12 39  1  0
 14 40  1  0
 15 41  1  0
 16 42  1  0
 17 43  1  0
 19 44  1  0
 22 45  1  0
 23 46  1  0
M  END
> <Name>
CHEMBL95510

> <ALogP>
3.996

> <Molecular_Weight>
313.39082

> <Num_H_Acceptors>
3

> <Num_H_Donors>
2

> <Num_RotatableBonds>
8

> <FormalCharge>
0

$$$$
CHEMBL55895
  SciTegic01131515592D

 26 26  0  0  0  0            999 V2000
    9.0990   -0.7525    0.0000 O   0  0
    7.7988   -1.5020    0.0000 N   0  0
    6.4990   -0.7516    0.0000 C   0  0
    6.4994    0.4484    0.0000 O   0  0
    5.1988   -1.5012    0.0000 C   0  0
    3.8990   -0.7508    0.0000 C   0  0
    2.5988   -1.5004    0.0000 C   0  0
    1.2990   -0.7500    0.0000 C   0  0
    1.2990    0.7500    0.0000 C   0  0
    0.0000    1.5000    0.0000 C   0  0
   -1.2990    0.7500    0.0000 C   0  0
   -1.2990   -0.7500    0.0000 C   0  0
    0.0000   -1.5000    0.0000 C   0  0
    6.0646   -2.0016    0.0000 H   0  0
    5.1985   -2.5012    0.0000 H   0  0
    3.0332   -0.2504    0.0000 H   0  0
    3.8993    0.2492    0.0000 H   0  0
    1.7327   -2.0003    0.0000 H   0  0
    2.5985   -2.5004    0.0000 H   0  0
    2.1651    1.2500    0.0000 H   0  0
    0.0000    2.5000    0.0000 H   0  0
   -2.1651    1.2500    0.0000 H   0  0
   -2.1651   -1.2500    0.0000 H   0  0
    0.0000   -2.5000    0.0000 H   0  0
    9.9650   -1.2525    0.0000 H   0  0
    7.7984   -2.5020    0.0000 H   0  0
  1  2  1  0
  2  3  1  0
  3  4  2  0
  3  5  1  0
  5  6  1  0
  6  7  1  0
  7  8  1  0
  8  9  2  0
  9 10  1  0
 10 11  2  0
 11 12  1  0
 12 13  2  0
  8 13  1  0
  5 14  1  0
  5 15  1  0
  6 16  1  0
  6 17  1  0
  7 18  1  0
  7 19  1  0
  9 20  1  0
 10 21  1  0
 11 22  1  0
 12 23  1  0
 13 24  1  0
  1 25  1  0
  2 26  1  0
M  END
> <Name>
CHEMBL55895

> <ALogP>
1.792

> <Molecular_Weight>
179.21571

> <Num_H_Acceptors>
2

> <Num_H_Donors>
2

> <Num_RotatableBonds>
4

> <FormalCharge>
0

$$$$
CHEMBL490067
  SciTegic01131515592D

 39 39  0  0  0  0            999 V2000
    6.4855   -8.2648    0.0000 C   0  0
    5.1873   -7.5117    0.0000 C   0  0
    5.1894   -6.0109    0.0000 S   0  0
    3.8912   -5.2578    0.0000 C   0  0
    2.8509   -5.8560    0.0000 S   0  0
    3.8933   -3.7570    0.0000 S   0  0
    2.5951   -3.0039    0.0000 C   0  0
    2.5973   -1.5031    0.0000 C   0  0
    3.6375   -0.9049    0.0000 O   0  0
    1.2990   -0.7500    0.0000 C   0  0
    1.2990    0.7500    0.0000 C   0  0
    0.0000    1.5000    0.0000 C   0  0
   -1.2990    0.7500    0.0000 C   0  0
   -2.5988    1.5004    0.0000 C   0  0
   -2.5998    3.0012    0.0000 C   0  0
   -3.8995    3.7516    0.0000 N   0  0
   -3.9005    5.2525    0.0000 C   0  0
   -2.8614    5.8528    0.0000 O   0  0
   -5.2002    6.0029    0.0000 C   0  0
   -1.2990   -0.7500    0.0000 C   0  0
    0.0000   -1.5000    0.0000 C   0  0
    6.4840   -9.2648    0.0000 H   0  0
    7.3524   -7.7663    0.0000 H   0  0
    7.3507   -8.7662    0.0000 H   0  0
    4.3204   -8.0102    0.0000 H   0  0
    4.3220   -7.0104    0.0000 H   0  0
    1.7282   -3.5024    0.0000 H   0  0
    2.5932   -4.0039    0.0000 H   0  0
    2.1651    1.2500    0.0000 H   0  0
    0.0000    2.5000    0.0000 H   0  0
   -2.5986    0.5004    0.0000 H   0  0
   -3.4647    1.0001    0.0000 H   0  0
   -2.5999    4.0012    0.0000 H   0  0
   -1.7339    3.5015    0.0000 H   0  0
   -5.2009    7.0029    0.0000 H   0  0
   -6.0665    6.5024    0.0000 H   0  0
   -6.0661    5.5026    0.0000 H   0  0
   -2.1651   -1.2500    0.0000 H   0  0
    0.0000   -2.5000    0.0000 H   0  0
  1  2  1  0
  2  3  1  0
  3  4  1  0
  4  5  2  0
  4  6  1  0
  6  7  1  0
  7  8  1  0
  8  9  2  0
  8 10  1  0
 10 11  2  0
 11 12  1  0
 12 13  2  0
 13 14  1  0
 14 15  1  0
 15 16  1  0
 16 17  1  0
 17 18  2  0
 17 19  1  0
 13 20  1  0
 20 21  2  0
 10 21  1  0
  1 22  1  0
  1 23  1  0
  1 24  1  0
  2 25  1  0
  2 26  1  0
  7 27  1  0
  7 28  1  0
 11 29  1  0
 12 30  1  0
 14 31  1  0
 14 32  1  0
 15 33  1  0
 15 34  1  0
 19 35  1  0
 19 36  1  0
 19 37  1  0
 20 38  1  0
 21 39  1  0
M  END
> <Name>
CHEMBL490067

> <ALogP>
3.732

> <Molecular_Weight>
341.51186

> <Num_H_Acceptors>
5

> <Num_H_Donors>
1

> <Num_RotatableBonds>
9

> <FormalCharge>
0

$$$$
CHEMBL273000
  SciTegic01131515592D

 46 48  0  0  0  0            999 V2000
    2.5973   -1.5031    0.0000 O   0  0
    1.2990   -0.7500    0.0000 C   0  0
    1.2990    0.7500    0.0000 C   0  0
    0.0000    1.5000    0.0000 C   0  0
   -1.2990    0.7500    0.0000 C   0  0
   -1.2990   -0.7500    0.0000 C   0  0
    0.0000   -1.5000    0.0000 C   0  0
    0.0031   -3.0008    0.0000 N   0  0
    1.3039   -3.7494    0.0000 C   0  0
    2.3421   -3.1476    0.0000 O   0  0
    1.3070   -5.2502    0.0000 C   0  0
    2.6078   -5.9988    0.0000 C   0  0
    2.6109   -7.4996    0.0000 C   0  0
    3.9117   -8.2481    0.0000 C   0  0
    3.9139   -9.7482    0.0000 C   0  0
    5.2140  -10.4963    0.0000 C   0  0
    6.5120   -9.7444    0.0000 C   0  0
    6.5098   -8.2444    0.0000 C   0  0
    5.2097   -7.4963    0.0000 C   0  0
   -2.5987    1.5004    0.0000 C   0  0
   -2.6012    3.0004    0.0000 C   0  0
   -3.9015    3.7484    0.0000 C   0  0
   -5.1993    2.9963    0.0000 C   0  0
   -5.1969    1.4963    0.0000 C   0  0
   -3.8967    0.7484    0.0000 C   0  0
    2.1651    1.2500    0.0000 H   0  0
    0.0000    2.5000    0.0000 H   0  0
   -2.1651   -1.2500    0.0000 H   0  0
    0.4400   -4.7519    0.0000 H   0  0
    0.4419   -5.7517    0.0000 H   0  0
    2.6062   -4.9988    0.0000 H   0  0
    3.4730   -5.4973    0.0000 H   0  0
    2.6125   -8.4996    0.0000 H   0  0
    1.7458   -8.0011    0.0000 H   0  0
    3.0486  -10.2494    0.0000 H   0  0
    5.2154  -11.4963    0.0000 H   0  0
    7.3787  -10.2432    0.0000 H   0  0
    7.3751   -7.7432    0.0000 H   0  0
    5.2083   -6.4963    0.0000 H   0  0
   -1.7360    3.5018    0.0000 H   0  0
   -3.9030    4.7484    0.0000 H   0  0
   -6.0661    3.4949    0.0000 H   0  0
   -6.0621    0.9949    0.0000 H   0  0
   -3.8951   -0.2516    0.0000 H   0  0
    2.5958   -2.5031    0.0000 H   0  0
   -0.8621   -3.5023    0.0000 H   0  0
  1  2  1  0
  2  3  2  0
  3  4  1  0
  4  5  2  0
  5  6  1  0
  6  7  2  0
  2  7  1  0
  7  8  1  0
  8  9  1  0
  9 10  2  0
  9 11  1  0
 11 12  1  0
 12 13  1  0
 13 14  1  0
 14 15  2  0
 15 16  1  0
 16 17  2  0
 17 18  1  0
 18 19  2  0
 14 19  1  0
  5 20  1  0
 20 21  2  0
 21 22  1  0
 22 23  2  0
 23 24  1  0
 24 25  2  0
 20 25  1  0
  3 26  1  0
  4 27  1  0
  6 28  1  0
 11 29  1  0
 11 30  1  0
 12 31  1  0
 12 32  1  0
 13 33  1  0
 13 34  1  0
 15 35  1  0
 16 36  1  0
 17 37  1  0
 18 38  1  0
 19 39  1  0
 21 40  1  0
 22 41  1  0
 23 42  1  0
 24 43  1  0
 25 44  1  0
  1 45  1  0
  8 46  1  0
M  END
> <Name>
CHEMBL273000

> <ALogP>
4.838

> <Molecular_Weight>
331.40764

> <Num_H_Acceptors>
2

> <Num_H_Donors>
2

> <Num_RotatableBonds>
6

> <FormalCharge>
0

$$$$
CHEMBL246759
  SciTegic01131515592D

 24 25  0  0  0  0            999 V2000
   -4.9300    3.7369    0.0000 C   0  0
   -3.6267    2.9927    0.0000 O   0  0
   -3.6187    1.4919    0.0000 C   0  0
   -4.6549    0.8867    0.0000 O   0  0
   -2.3155    0.7475    0.0000 C   0  0
   -2.3155   -0.7475    0.0000 C   0  0
   -1.0028   -1.5132    0.0000 C   0  0
    0.2917   -0.7475    0.0000 C   0  0
    1.7138   -1.2033    0.0000 C   0  0
    2.5889    0.0182    0.0000 C   0  0
    1.7138    1.2033    0.0000 S   0  0
    0.2917    0.7475    0.0000 C   0  0
   -1.0028    1.5132    0.0000 C   0  0
    4.0872    0.0382    0.0000 C   0  0
    4.7008   -0.9930    0.0000 O   0  0
    4.8208    1.3475    0.0000 N   0  0
    6.0207    1.3637    0.0000 O   0  5
   -4.9354    4.7369    0.0000 H   0  0
   -5.7986    4.2324    0.0000 H   0  0
   -5.7935    3.2326    0.0000 H   0  0
   -3.1826   -1.2456    0.0000 H   0  0
   -0.9997   -2.5132    0.0000 H   0  0
    2.0279   -2.1527    0.0000 H   0  0
   -0.9997    2.5132    0.0000 H   0  0
  1  2  1  0
  2  3  1  0
  3  4  2  0
  3  5  1  0
  5  6  2  0
  6  7  1  0
  7  8  2  0
  8  9  1  0
  9 10  2  0
 10 11  1  0
 11 12  1  0
  8 12  1  0
 12 13  2  0
  5 13  1  0
 10 14  1  0
 14 15  2  0
 14 16  1  0
 16 17  1  0
  1 18  1  0
  1 19  1  0
  1 20  1  0
  6 21  1  0
  7 22  1  0
  9 23  1  0
 13 24  1  0
M  CHG  1  17  -1
M  END
> <Name>
CHEMBL246759

> <ALogP>
1.15

> <Molecular_Weight>
250.25051

> <Num_H_Acceptors>
4

> <Num_H_Donors>
1

> <Num_RotatableBonds>
3

> <FormalCharge>
-1

$$$$
CHEMBL2333346
  SciTegic01131515592D

 18 18  0  0  0  0            999 V2000
    4.0102   -3.2959    0.0000 O   0  0
    3.1255   -2.0835    0.0000 N   0  0
    1.6332   -2.2426    0.0000 C   0  0
    1.1470   -3.3397    0.0000 O   0  0
    0.7500   -1.0323    0.0000 C   0  0
    1.2135    0.3943    0.0000 C   0  0
    0.0000    1.2760    0.0000 C   0  0
   -1.2135    0.3943    0.0000 C   0  0
   -0.7500   -1.0323    0.0000 C   0  0
    2.1646    0.7033    0.0000 H   0  0
   -0.8734    1.7629    0.0000 H   0  0
    0.8733    1.7631    0.0000 H   0  0
   -1.4068    1.3754    0.0000 H   0  0
   -1.9467   -0.2858    0.0000 H   0  0
   -1.7428   -0.9129    0.0000 H   0  0
   -0.3297   -1.9397    0.0000 H   0  0
    5.0046   -3.1899    0.0000 H   0  0
    3.5307   -1.1693    0.0000 H   0  0
  1  2  1  0
  2  3  1  0
  3  4  2  0
  3  5  1  0
  5  6  2  0
  6  7  1  0
  7  8  1  0
  8  9  1  0
  5  9  1  0
  6 10  1  0
  7 11  1  0
  7 12  1  0
  8 13  1  0
  8 14  1  0
  9 15  1  0
  9 16  1  0
  1 17  1  0
  2 18  1  0
M  END
> <Name>
CHEMBL2333346

> <ALogP>
0.811

> <Molecular_Weight>
127.14116

> <Num_H_Acceptors>
2

> <Num_H_Donors>
2

> <Num_RotatableBonds>
1

> <FormalCharge>
0

$$$$
CHEMBL2063396
  SciTegic01131515592D

 83 85  0  0  1  0            999 V2000
    6.2943    3.1405    0.0000 C   0  0
    5.1516    2.1674    0.0000 C   0  0
    3.7373    2.6696    0.0000 C   0  0
    2.5792    1.7803    0.0000 C   0  0  2  0  0  0
    1.4564    2.7750    0.0000 N   0  0
    0.0000    3.1339    0.0000 C   0  0
    0.0000    4.1339    0.0000 O   0  0
   -1.4564    2.7750    0.0000 C   0  0  2  0  0  0
   -0.6145    3.9679    0.0000 C   0  0
   -2.5792    1.7803    0.0000 N   0  0
   -3.1111    0.3777    0.0000 C   0  0
   -4.3023    0.5224    0.0000 O   0  0
   -2.9303   -1.1113    0.0000 C   0  0
   -2.0782   -2.3458    0.0000 C   0  0  2  0  0  0
   -3.3955   -2.9757    0.0000 C   0  0
   -3.5881   -4.4641    0.0000 C   0  0
   -4.9731   -5.0423    0.0000 C   0  0
   -2.3952   -5.3747    0.0000 C   0  0
   -0.7500   -3.0429    0.0000 N   0  0
    0.7500   -3.0429    0.0000 C   0  0
    0.9893   -4.0138    0.0000 O   0  0
    2.0782   -2.3458    0.0000 C   0  0  2  0  0  0
    2.5447   -3.7294    0.0000 C   0  0
    3.9991   -4.1001    0.0000 C   0  0
    4.5364   -5.4891    0.0000 C   0  0
    6.0062   -5.3893    0.0000 N   0  0
    6.9571   -6.5475    0.0000 C   0  0
    6.4295   -7.9526    0.0000 N   0  3
    7.3817   -9.1126    0.0000 C   0  0
    4.9493   -8.2007    0.0000 C   0  0
    6.3874   -3.9454    0.0000 C   0  0
    7.7294   -3.2665    0.0000 C   0  0
    7.7905   -1.7480    0.0000 C   0  0
    6.5304   -0.9434    0.0000 C   0  0
    5.1786   -1.6377    0.0000 C   0  0
    5.1273   -3.1408    0.0000 C   0  0
    2.9303   -1.1113    0.0000 N   0  0
    3.1111    0.3778    0.0000 C   0  0
    4.3023    0.5224    0.0000 O   0  0
    7.2366    2.8059    0.0000 H   0  0
    6.1131    4.1239    0.0000 H   0  0
    7.0553    3.7892    0.0000 H   0  0
    5.3327    1.1840    0.0000 H   0  0
    4.3906    1.5187    0.0000 H   0  0
    3.5562    3.6530    0.0000 H   0  0
    4.4983    3.3183    0.0000 H   0  0
    3.4598    1.3064    0.0000 H   0  0
   -2.4564    2.7645    0.0000 H   0  0
    0.3847    3.9282    0.0000 H   0  0
   -0.0803    4.8133    0.0000 H   0  0
   -1.0794    4.8533    0.0000 H   0  0
   -3.0415   -2.1051    0.0000 H   0  0
   -3.6725   -0.4412    0.0000 H   0  0
   -1.7139   -3.2771    0.0000 H   0  0
   -4.1903   -2.3689    0.0000 H   0  0
   -4.3184   -3.3605    0.0000 H   0  0
   -4.3830   -3.8573    0.0000 H   0  0
   -5.1015   -6.0341    0.0000 H   0  0
   -5.8961   -5.4272    0.0000 H   0  0
   -5.7680   -4.4355    0.0000 H   0  0
   -1.4721   -4.9904    0.0000 H   0  0
   -1.6007   -5.9819    0.0000 H   0  0
   -2.5236   -6.3665    0.0000 H   0  0
    3.0466   -2.0964    0.0000 H   0  0
    2.8155   -4.6920    0.0000 H   0  0
    1.8466   -4.4453    0.0000 H   0  0
    3.9994   -6.3327    0.0000 H   0  0
    7.5920   -7.3202    0.0000 H   0  0
    7.9437   -6.3842    0.0000 H   0  0
    7.0302  -10.0488    0.0000 H   0  0
    8.0166   -9.8853    0.0000 H   0  0
    8.3683   -8.9493    0.0000 H   0  0
    4.5988   -9.1373    0.0000 H   0  0
    3.9630   -8.3656    0.0000 H   0  0
    4.3133   -7.4291    0.0000 H   0  0
    8.5706   -3.8072    0.0000 H   0  0
    8.6770   -1.2852    0.0000 H   0  0
    6.5773    0.0555    0.0000 H   0  0
    4.3341   -1.1021    0.0000 H   0  0
    1.9211    3.6604    0.0000 H   0  0
   -3.4022    2.3483    0.0000 H   0  0
   -0.9893   -4.0138    0.0000 H   0  0
    3.8653   -1.4659    0.0000 H   0  0
  1  2  1  0
  2  3  1  0
  4  3  1  0
  4  5  1  0
  5  6  1  0
  6  7  2  0
  6  8  1  0
  8  9  1  0
  8 10  1  0
 10 11  1  0
 11 12  2  0
 11 13  1  0
 13 14  1  0
 14 15  1  0
 15 16  1  0
 16 17  1  0
 16 18  1  0
 14 19  1  0
 19 20  1  0
 20 21  2  0
 20 22  1  0
 22 23  1  0
 23 24  1  0
 24 25  2  0
 25 26  1  0
 26 27  1  0
 27 28  1  0
 28 29  1  0
 28 30  1  0
 26 31  1  0
 31 32  2  0
 32 33  1  0
 33 34  2  0
 34 35  1  0
 35 36  2  0
 24 36  1  0
 31 36  1  0
 22 37  1  0
 37 38  1  0
  4 38  1  0
 38 39  2  0
  1 40  1  0
  1 41  1  0
  1 42  1  0
  2 43  1  0
  2 44  1  0
  3 45  1  0
  3 46  1  0
  4 47  1  6
  8 48  1  6
  9 49  1  0
  9 50  1  0
  9 51  1  0
 13 52  1  0
 13 53  1  0
 14 54  1  6
 15 55  1  0
 15 56  1  0
 16 57  1  0
 17 58  1  0
 17 59  1  0
 17 60  1  0
 18 61  1  0
 18 62  1  0
 18 63  1  0
 22 64  1  6
 23 65  1  0
 23 66  1  0
 25 67  1  0
 27 68  1  0
 27 69  1  0
 29 70  1  0
 29 71  1  0
 29 72  1  0
 30 73  1  0
 30 74  1  0
 30 75  1  0
 32 76  1  0
 33 77  1  0
 34 78  1  0
 35 79  1  0
  5 80  1  0
 10 81  1  0
 19 82  1  0
 37 83  1  0
M  CHG  1  28   1
M  END
> <Name>
CHEMBL2063396

> <ALogP>
1.144

> <Molecular_Weight>
541.70539

> <Num_H_Acceptors>
4

> <Num_H_Donors>
5

> <Num_RotatableBonds>
8

> <FormalCharge>
1

$$$$
CHEMBL1164063
  SciTegic01131515592D

 63 66  0  0  0  0            999 V2000
    7.8166  -10.4454    0.0000 N   0  0
    7.8339  -11.9461    0.0000 C   0  0
    9.1400  -12.6838    0.0000 C   0  0
    9.1541  -14.1837    0.0000 C   0  0
    7.8622  -14.9460    0.0000 C   0  0
    6.5562  -14.2083    0.0000 C   0  0
    6.5420  -12.7084    0.0000 C   0  0
    5.2367  -11.9676    0.0000 N   0  0
    3.9421  -12.7268    0.0000 C   0  0
    3.9506  -13.9267    0.0000 O   0  0
    2.6368  -11.9860    0.0000 C   0  0
    1.3417  -12.7429    0.0000 C   0  0
    0.0387  -11.9999    0.0000 C   0  0
    0.0307  -10.4999    0.0000 C   0  0
   -1.2731   -9.7564    0.0000 C   0  0
   -2.5693  -10.5130    0.0000 N   0  3
   -3.8739   -9.7710    0.0000 C   0  0
   -3.8845   -8.2702    0.0000 C   0  0
   -5.1891   -7.5282    0.0000 O   0  0
   -2.5631  -12.0138    0.0000 C   0  0
   -3.8593  -12.7704    0.0000 C   0  0
   -3.8522  -14.2703    0.0000 C   0  0
   -5.1477  -15.0265    0.0000 C   0  0
   -6.4503  -14.2826    0.0000 C   0  0
   -6.4574  -12.7826    0.0000 C   0  0
   -5.1619  -12.0265    0.0000 C   0  0
   -7.7464  -15.0391    0.0000 C   0  0
   -7.7418  -16.5392    0.0000 C   0  0
   -9.0385  -17.2933    0.0000 C   0  0
  -10.3399  -16.5473    0.0000 C   0  0
  -10.3446  -15.0473    0.0000 C   0  0
   -9.0479  -14.2933    0.0000 C   0  0
    1.3257   -9.7429    0.0000 C   0  0
    2.6287  -10.4859    0.0000 C   0  0
   10.0012  -12.1757    0.0000 H   0  0
   10.0248  -14.6755    0.0000 H   0  0
    7.8717  -15.9459    0.0000 H   0  0
    5.6949  -14.7165    0.0000 H   0  0
    1.3471  -13.7429    0.0000 H   0  0
   -0.8246  -12.5045    0.0000 H   0  0
   -2.1416   -9.2607    0.0000 H   0  0
   -1.2781   -8.7565    0.0000 H   0  0
   -3.8673  -10.7710    0.0000 H   0  0
   -4.7365  -10.2769    0.0000 H   0  0
   -3.8912   -7.2702    0.0000 H   0  0
   -3.0219   -7.7643    0.0000 H   0  0
   -1.6993  -11.5101    0.0000 H   0  0
   -1.6949  -12.5100    0.0000 H   0  0
   -2.9839  -14.7662    0.0000 H   0  0
   -5.1430  -16.0265    0.0000 H   0  0
   -7.3258  -12.2867    0.0000 H   0  0
   -5.1666  -11.0265    0.0000 H   0  0
   -6.8742  -17.0365    0.0000 H   0  0
   -9.0354  -18.2932    0.0000 H   0  0
  -11.2043  -17.0500    0.0000 H   0  0
  -11.2122  -14.5501    0.0000 H   0  0
   -9.0511  -13.2933    0.0000 H   0  0
    1.3203   -8.7429    0.0000 H   0  0
    3.4920   -9.9813    0.0000 H   0  0
    6.9452   -9.9548    0.0000 H   0  0
    8.6770   -9.9357    0.0000 H   0  0
    5.2296  -10.9676    0.0000 H   0  0
   -5.1962   -6.5282    0.0000 H   0  0
  1  2  1  0
  2  3  2  0
  3  4  1  0
  4  5  2  0
  5  6  1  0
  6  7  2  0
  2  7  1  0
  7  8  1  0
  8  9  1  0
  9 10  2  0
  9 11  1  0
 11 12  2  0
 12 13  1  0
 13 14  2  0
 14 15  1  0
 15 16  1  0
 16 17  1  0
 17 18  1  0
 18 19  1  0
 16 20  1  0
 20 21  1  0
 21 22  2  0
 22 23  1  0
 23 24  2  0
 24 25  1  0
 25 26  2  0
 21 26  1  0
 24 27  1  0
 27 28  2  0
 28 29  1  0
 29 30  2  0
 30 31  1  0
 31 32  2  0
 27 32  1  0
 14 33  1  0
 33 34  2  0
 11 34  1  0
  3 35  1  0
  4 36  1  0
  5 37  1  0
  6 38  1  0
 12 39  1  0
 13 40  1  0
 15 41  1  0
 15 42  1  0
 17 43  1  0
 17 44  1  0
 18 45  1  0
 18 46  1  0
 20 47  1  0
 20 48  1  0
 22 49  1  0
 23 50  1  0
 25 51  1  0
 26 52  1  0
 28 53  1  0
 29 54  1  0
 30 55  1  0
 31 56  1  0
 32 57  1  0
 33 58  1  0
 34 59  1  0
  1 60  1  0
  1 61  1  0
  8 62  1  0
 19 63  1  0
M  CHG  1  16   1
M  END
> <Name>
CHEMBL1164063

> <ALogP>
2.943

> <Molecular_Weight>
452.5674

> <Num_H_Acceptors>
3

> <Num_H_Donors>
4

> <Num_RotatableBonds>
9

> <FormalCharge>
1

$$$$
CHEMBL270249
  SciTegic01131515592D

 41 43  0  0  0  0            999 V2000
   16.1288   -3.7159    0.0000 O   0  0
   14.6693   -3.3661    0.0000 N   0  0
   13.6359   -4.4545    0.0000 C   0  0
   13.9768   -5.6051    0.0000 O   0  0
   12.1764   -4.1048    0.0000 C   0  0
   11.1448   -5.1913    0.0000 C   0  0
   11.4178   -6.6662    0.0000 C   0  0
   10.0994   -7.3817    0.0000 C   0  0
    9.0370   -6.3477    0.0000 C   0  0
    9.6577   -4.9951    0.0000 S   0  0
    7.5445   -6.5046    0.0000 C   0  0
    6.7945   -7.8036    0.0000 C   0  0
    5.3273   -7.4917    0.0000 S   0  0
    5.1894   -6.0109    0.0000 C   0  0
    3.8912   -5.2578    0.0000 N   0  0
    3.8933   -3.7570    0.0000 C   0  0
    4.9336   -3.1588    0.0000 O   0  0
    2.5951   -3.0039    0.0000 C   0  0
    2.5973   -1.5031    0.0000 O   0  0
    1.2990   -0.7500    0.0000 C   0  0
    1.2990    0.7500    0.0000 C   0  0
    0.0000    1.5000    0.0000 C   0  0
   -1.2990    0.7500    0.0000 C   0  0
   -1.2990   -0.7500    0.0000 C   0  0
    0.0000   -1.5000    0.0000 C   0  0
    6.5408   -5.3899    0.0000 N   0  0
   12.8646   -3.3792    0.0000 H   0  0
   11.8923   -3.1460    0.0000 H   0  0
   12.3203   -7.0970    0.0000 H   0  0
    9.9625   -8.3722    0.0000 H   0  0
    7.2012   -8.7172    0.0000 H   0  0
    1.7299   -2.5025    0.0000 H   0  0
    1.7282   -3.5024    0.0000 H   0  0
    2.1651    1.2500    0.0000 H   0  0
    0.0000    2.5000    0.0000 H   0  0
   -2.1651    1.2500    0.0000 H   0  0
   -2.1651   -1.2500    0.0000 H   0  0
    0.0000   -2.5000    0.0000 H   0  0
   16.8173   -2.9907    0.0000 H   0  0
   14.3852   -2.4073    0.0000 H   0  0
    3.0243   -5.7563    0.0000 H   0  0
  1  2  1  0
  2  3  1  0
  3  4  2  0
  3  5  1  0
  5  6  1  0
  6  7  2  0
  7  8  1  0
  8  9  2  0
  9 10  1  0
  6 10  1  0
  9 11  1  0
 11 12  2  0
 12 13  1  0
 13 14  1  0
 14 15  1  0
 15 16  1  0
 16 17  2  0
 16 18  1  0
 18 19  1  0
 19 20  1  0
 20 21  2  0
 21 22  1  0
 22 23  2  0
 23 24  1  0
 24 25  2  0
 20 25  1  0
 14 26  2  0
 11 26  1  0
  5 27  1  0
  5 28  1  0
  7 29  1  0
  8 30  1  0
 12 31  1  0
 18 32  1  0
 18 33  1  0
 21 34  1  0
 22 35  1  0
 23 36  1  0
 24 37  1  0
 25 38  1  0
  1 39  1  0
  2 40  1  0
 15 41  1  0
M  END
> <Name>
CHEMBL270249

> <ALogP>
2.688

> <Molecular_Weight>
389.4487

> <Num_H_Acceptors>
5

> <Num_H_Donors>
3

> <Num_RotatableBonds>
7

> <FormalCharge>
0

$$$$
CHEMBL249284
  SciTegic01131515592D

 29 29  0  0  0  0            999 V2000
    3.8990   -0.7508    0.0000 C   0  0
    2.5988   -1.5004    0.0000 C   0  0
    2.5983   -3.0012    0.0000 C   0  0
    3.9225   -2.2677    0.0000 C   0  0
    1.2990   -0.7500    0.0000 C   0  0
    1.2990    0.7500    0.0000 C   0  0
    0.0000    1.5000    0.0000 C   0  0
   -1.2990    0.7500    0.0000 C   0  0
   -1.2990   -0.7500    0.0000 C   0  0
    0.0000   -1.5000    0.0000 C   0  0
   -2.6003    1.4977    0.0000 C   0  0
   -2.6024    2.6977    0.0000 O   0  0
   -3.8990    0.7455    0.0000 N   0  0
   -5.2003    1.4932    0.0000 O   0  0
    4.7650   -1.2508    0.0000 H   0  0
    3.8993    0.2492    0.0000 H   0  0
    4.7651   -0.2510    0.0000 H   0  0
    3.4639   -3.5020    0.0000 H   0  0
    1.7320   -3.5006    0.0000 H   0  0
    2.5975   -4.0012    0.0000 H   0  0
    3.9213   -3.2677    0.0000 H   0  0
    4.7878   -2.7688    0.0000 H   0  0
    4.7892   -1.7689    0.0000 H   0  0
    2.1651    1.2500    0.0000 H   0  0
    0.0000    2.5000    0.0000 H   0  0
   -2.1651   -1.2500    0.0000 H   0  0
    0.0000   -2.5000    0.0000 H   0  0
   -3.8973   -0.2545    0.0000 H   0  0
   -6.0656    0.9920    0.0000 H   0  0
  1  2  1  0
  2  3  1  0
  2  4  1  0
  2  5  1  0
  5  6  2  0
  6  7  1  0
  7  8  2  0
  8  9  1  0
  9 10  2  0
  5 10  1  0
  8 11  1  0
 11 12  2  0
 11 13  1  0
 13 14  1  0
  1 15  1  0
  1 16  1  0
  1 17  1  0
  3 18  1  0
  3 19  1  0
  3 20  1  0
  4 21  1  0
  4 22  1  0
  4 23  1  0
  6 24  1  0
  7 25  1  0
  9 26  1  0
 10 27  1  0
 13 28  1  0
 14 29  1  0
M  END
> <Name>
CHEMBL249284

> <ALogP>
2.245

> <Molecular_Weight>
193.24229

> <Num_H_Acceptors>
2

> <Num_H_Donors>
2

> <Num_RotatableBonds>
2

> <FormalCharge>
0

$$$$
CHEMBL1808673
  SciTegic01131515592D

 38 39  0  0  0  0            999 V2000
  -10.1753   12.7172    0.0000 O   0  0
   -8.8720   11.9729    0.0000 N   0  0
   -8.8640   10.4721    0.0000 C   0  0
   -9.9002    9.8669    0.0000 O   0  0
   -7.5607    9.7279    0.0000 C   0  0
   -7.5527    8.2271    0.0000 C   0  0
   -6.2494    7.4828    0.0000 C   0  0
   -6.2413    5.9820    0.0000 C   0  0
   -4.9380    5.2378    0.0000 C   0  0
   -4.9300    3.7369    0.0000 C   0  0
   -3.6267    2.9927    0.0000 C   0  0
   -3.6187    1.4919    0.0000 C   0  0
   -2.3155    0.7475    0.0000 C   0  0
   -2.3155   -0.7475    0.0000 C   0  0
   -1.0028   -1.5132    0.0000 C   0  0
    0.2917   -0.7475    0.0000 C   0  0
    1.7138   -1.2033    0.0000 O   0  0
    2.5889    0.0182    0.0000 C   0  0
    1.7138    1.2033    0.0000 O   0  0
    0.2917    0.7475    0.0000 C   0  0
   -1.0028    1.5132    0.0000 C   0  0
   -6.6972   10.2322    0.0000 H   0  0
   -8.4162    7.7227    0.0000 H   0  0
   -5.3859    7.9872    0.0000 H   0  0
   -7.1048    5.4776    0.0000 H   0  0
   -4.9429    6.2377    0.0000 H   0  0
   -4.0746    5.7421    0.0000 H   0  0
   -4.9251    2.7370    0.0000 H   0  0
   -5.7935    3.2326    0.0000 H   0  0
   -2.7632    3.4971    0.0000 H   0  0
   -4.4822    0.9875    0.0000 H   0  0
   -3.1826   -1.2456    0.0000 H   0  0
   -0.9997   -2.5132    0.0000 H   0  0
    3.0696    0.8951    0.0000 H   0  0
    3.0823   -0.8516    0.0000 H   0  0
   -0.9997    2.5132    0.0000 H   0  0
  -10.1807   13.7172    0.0000 H   0  0
   -8.0086   12.4773    0.0000 H   0  0
  1  2  1  0
  2  3  1  0
  3  4  2  0
  3  5  1  0
  5  6  2  0
  6  7  1  0
  7  8  2  0
  8  9  1  0
  9 10  1  0
 10 11  1  0
 11 12  2  0
 12 13  1  0
 13 14  2  0
 14 15  1  0
 15 16  2  0
 16 17  1  0
 17 18  1  0
 18 19  1  0
 19 20  1  0
 16 20  1  0
 20 21  2  0
 13 21  1  0
  5 22  1  0
  6 23  1  0
  7 24  1  0
  8 25  1  0
  9 26  1  0
  9 27  1  0
 10 28  1  0
 10 29  1  0
 11 30  1  0
 12 31  1  0
 14 32  1  0
 15 33  1  0
 18 34  1  0
 18 35  1  0
 21 36  1  0
  1 37  1  0
  2 38  1  0
M  END
> <Name>
CHEMBL1808673

> <ALogP>
2.928

> <Molecular_Weight>
287.31048

> <Num_H_Acceptors>
4

> <Num_H_Donors>
2

> <Num_RotatableBonds>
6

> <FormalCharge>
0

$$$$
CHEMBL216885
  SciTegic01131515592D

 27 28  0  0  0  0            999 V2000
    1.6307   -2.2444    0.0000 C   0  0
    0.7500   -1.0323    0.0000 N   0  0
    1.2135    0.3943    0.0000 N   0  0
    0.0000    1.2760    0.0000 C   0  0
   -1.2135    0.3943    0.0000 C   0  0
   -0.7500   -1.0323    0.0000 C   0  0
   -1.6321   -2.2464    0.0000 C   0  0
   -3.1114   -2.3441    0.0000 C   0  0
   -3.4619   -3.8026    0.0000 C   0  0
   -2.1831   -4.5866    0.0000 C   0  0
   -1.0423   -3.6127    0.0000 S   0  0
   -2.0628   -6.0801    0.0000 C   0  0
   -3.0507   -6.7612    0.0000 O   0  0
   -0.7074   -6.7245    0.0000 N   0  0
   -0.5869   -8.2205    0.0000 O   0  0
    0.0000    2.7742    0.0000 C   0  0
    1.0388    3.3749    0.0000 F   0  0
   -1.0394    3.3739    0.0000 F   0  0
   -0.0006    3.9742    0.0000 F   0  0
    2.6252   -2.1405    0.0000 H   0  0
    1.2236   -3.1578    0.0000 H   0  0
    2.2181   -3.0537    0.0000 H   0  0
   -2.1646    0.7033    0.0000 H   0  0
   -3.7559   -1.5796    0.0000 H   0  0
   -4.3859   -4.1851    0.0000 H   0  0
    0.1159   -6.1569    0.0000 H   0  0
    0.3162   -8.6499    0.0000 H   0  0
  1  2  1  0
  2  3  1  0
  3  4  2  0
  4  5  1  0
  5  6  2  0
  2  6  1  0
  6  7  1  0
  7  8  2  0
  8  9  1  0
  9 10  2  0
 10 11  1  0
  7 11  1  0
 10 12  1  0
 12 13  2  0
 12 14  1  0
 14 15  1  0
  4 16  1  0
 16 17  1  0
 16 18  1  0
 16 19  1  0
  1 20  1  0
  1 21  1  0
  1 22  1  0
  5 23  1  0
  8 24  1  0
  9 25  1  0
 14 26  1  0
 15 27  1  0
M  END
> <Name>
CHEMBL216885

> <ALogP>
2.92

> <Molecular_Weight>
291.24962

> <Num_H_Acceptors>
3

> <Num_H_Donors>
2

> <Num_RotatableBonds>
3

> <FormalCharge>
0

$$$$
CHEMBL2057820
  SciTegic01131515592D

 61 64  0  0  0  0            999 V2000
    2.5973   -1.5031    0.0000 N   0  0
    1.2990   -0.7500    0.0000 C   0  0
    1.2990    0.7500    0.0000 C   0  0
    0.0000    1.5000    0.0000 C   0  0
   -1.2990    0.7500    0.0000 C   0  0
   -1.2990   -0.7500    0.0000 C   0  0
    0.0000   -1.5000    0.0000 C   0  0
    0.0031   -3.0008    0.0000 N   0  0
    1.3039   -3.7494    0.0000 C   0  0
    2.3421   -3.1476    0.0000 O   0  0
    1.3070   -5.2502    0.0000 C   0  0
    2.6060   -6.0003    0.0000 C   0  0
    2.6061   -7.5003    0.0000 C   0  0
    1.3071   -8.2503    0.0000 C   0  0
    1.3071   -9.7511    0.0000 C   0  0
    2.6064  -10.5023    0.0000 N   0  0
    2.6064  -12.0032    0.0000 C   0  0
    1.5670  -12.6029    0.0000 O   0  0
    3.9057  -12.7544    0.0000 O   0  0
    3.9058  -14.2552    0.0000 C   0  0
    5.2051  -15.0064    0.0000 C   0  0
    5.2042  -16.5064    0.0000 C   0  0
    6.5027  -17.2572    0.0000 C   0  0
    7.8022  -16.5080    0.0000 C   0  0
    7.8031  -15.0080    0.0000 C   0  0
    6.5046  -14.2572    0.0000 C   0  0
    9.1018  -14.2557    0.0000 N   0  0
    9.1006  -12.7548    0.0000 N   0  3
    9.0996  -11.5548    0.0000 N   0  5
    0.0080   -7.5003    0.0000 C   0  0
    0.0080   -6.0003    0.0000 C   0  0
   -2.5987    1.5004    0.0000 C   0  0
   -2.6012    3.0004    0.0000 C   0  0
   -3.9015    3.7484    0.0000 C   0  0
   -5.1993    2.9963    0.0000 C   0  0
   -5.1969    1.4963    0.0000 C   0  0
   -3.8967    0.7484    0.0000 C   0  0
    2.1651    1.2500    0.0000 H   0  0
    0.0000    2.5000    0.0000 H   0  0
   -2.1651   -1.2500    0.0000 H   0  0
    3.4721   -5.5003    0.0000 H   0  0
    3.4721   -8.0003    0.0000 H   0  0
    1.3067  -10.7511    0.0000 H   0  0
    0.4409  -10.2509    0.0000 H   0  0
    3.0398  -13.7551    0.0000 H   0  0
    3.0396  -14.7549    0.0000 H   0  0
    4.3378  -17.0059    0.0000 H   0  0
    6.5021  -18.2572    0.0000 H   0  0
    8.6680  -17.0085    0.0000 H   0  0
    6.5052  -13.2572    0.0000 H   0  0
   -0.8580   -8.0004    0.0000 H   0  0
   -0.8581   -5.5004    0.0000 H   0  0
   -1.7360    3.5018    0.0000 H   0  0
   -3.9030    4.7484    0.0000 H   0  0
   -6.0661    3.4949    0.0000 H   0  0
   -6.0621    0.9949    0.0000 H   0  0
   -3.8951   -0.2516    0.0000 H   0  0
    2.5958   -2.5031    0.0000 H   0  0
    3.4642   -1.0046    0.0000 H   0  0
   -0.8621   -3.5023    0.0000 H   0  0
    3.4726  -10.0026    0.0000 H   0  0
  1  2  1  0
  2  3  2  0
  3  4  1  0
  4  5  2  0
  5  6  1  0
  6  7  2  0
  2  7  1  0
  7  8  1  0
  8  9  1  0
  9 10  2  0
  9 11  1  0
 11 12  2  0
 12 13  1  0
 13 14  2  0
 14 15  1  0
 15 16  1  0
 16 17  1  0
 17 18  2  0
 17 19  1  0
 19 20  1  0
 20 21  1  0
 21 22  2  0
 22 23  1  0
 23 24  2  0
 24 25  1  0
 25 26  2  0
 21 26  1  0
 25 27  1  0
 27 28  2  0
 28 29  2  0
 14 30  1  0
 30 31  2  0
 11 31  1  0
  5 32  1  0
 32 33  2  0
 33 34  1  0
 34 35  2  0
 35 36  1  0
 36 37  2  0
 32 37  1  0
  3 38  1  0
  4 39  1  0
  6 40  1  0
 12 41  1  0
 13 42  1  0
 15 43  1  0
 15 44  1  0
 20 45  1  0
 20 46  1  0
 22 47  1  0
 23 48  1  0
 24 49  1  0
 26 50  1  0
 30 51  1  0
 31 52  1  0
 33 53  1  0
 34 54  1  0
 35 55  1  0
 36 56  1  0
 37 57  1  0
  1 58  1  0
  1 59  1  0
  8 60  1  0
 16 61  1  0
M  CHG  2  28   1  29  -1
M  END
> <Name>
CHEMBL2057820

> <ALogP>
5.431

> <Molecular_Weight>
492.52856

> <Num_H_Acceptors>
6

> <Num_H_Donors>
3

> <Num_RotatableBonds>
9

> <FormalCharge>
0

$$$$
CHEMBL471042
  SciTegic01131515592D

 40 41  0  0  0  0            999 V2000
    5.1894   -6.0109    0.0000 O   0  0
    3.8912   -5.2578    0.0000 N   0  0
    3.8933   -3.7570    0.0000 C   0  0
    4.9336   -3.1588    0.0000 O   0  0
    2.5951   -3.0039    0.0000 C   0  0
    2.5973   -1.5031    0.0000 C   0  0
    1.2990   -0.7500    0.0000 C   0  0
    1.2990    0.7500    0.0000 C   0  0
    0.0000    1.5000    0.0000 C   0  0
   -1.2990    0.7500    0.0000 C   0  0
   -2.6003    1.4977    0.0000 C   0  0
   -3.8990    0.7455    0.0000 N   0  0
   -5.2003    1.4932    0.0000 O   0  0
   -6.4990    0.7409    0.0000 C   0  0
   -7.8003    1.4887    0.0000 C   0  0
   -9.0978    0.7360    0.0000 C   0  0
  -10.3984    1.4833    0.0000 C   0  0
  -10.4015    2.9833    0.0000 C   0  0
   -9.1040    3.7360    0.0000 C   0  0
   -7.8034    2.9887    0.0000 C   0  0
  -11.7012    3.7337    0.0000 N   0  3
  -11.7020    4.9337    0.0000 O   0  0
  -12.7403    3.1334    0.0000 O   0  5
   -1.2990   -0.7500    0.0000 C   0  0
    0.0000   -1.5000    0.0000 C   0  0
    1.7282   -3.5024    0.0000 H   0  0
    3.4642   -1.0046    0.0000 H   0  0
    2.1651    1.2500    0.0000 H   0  0
    0.0000    2.5000    0.0000 H   0  0
   -2.6021    2.4977    0.0000 H   0  0
   -5.6322    0.2423    0.0000 H   0  0
   -6.4973   -0.2591    0.0000 H   0  0
   -9.0957   -0.2640    0.0000 H   0  0
  -11.2634    0.9815    0.0000 H   0  0
   -9.1060    4.7360    0.0000 H   0  0
   -6.9384    3.4904    0.0000 H   0  0
   -2.1651   -1.2500    0.0000 H   0  0
    0.0000   -2.5000    0.0000 H   0  0
    5.1880   -7.0109    0.0000 H   0  0
    3.0243   -5.7563    0.0000 H   0  0
  1  2  1  0
  2  3  1  0
  3  4  2  0
  3  5  1  0
  5  6  2  0
  6  7  1  0
  7  8  2  0
  8  9  1  0
  9 10  2  0
 10 11  1  0
 11 12  2  0
 12 13  1  0
 13 14  1  0
 14 15  1  0
 15 16  2  0
 16 17  1  0
 17 18  2  0
 18 19  1  0
 19 20  2  0
 15 20  1  0
 18 21  1  0
 21 22  2  0
 21 23  1  0
 10 24  1  0
 24 25  2  0
  7 25  1  0
  5 26  1  0
  6 27  1  0
  8 28  1  0
  9 29  1  0
 11 30  1  0
 14 31  1  0
 14 32  1  0
 16 33  1  0
 17 34  1  0
 19 35  1  0
 20 36  1  0
 24 37  1  0
 25 38  1  0
  1 39  1  0
  2 40  1  0
M  CHG  2  21   1  23  -1
M  END
> <Name>
CHEMBL471042

> <ALogP>
2.656

> <Molecular_Weight>
341.3181

> <Num_H_Acceptors>
6

> <Num_H_Donors>
2

> <Num_RotatableBonds>
7

> <FormalCharge>
0

$$$$
CHEMBL1165774
  SciTegic01131515592D

 63 66  0  0  0  0            999 V2000
    5.2072    2.9990    0.0000 C   0  0
    5.2036    1.4982    0.0000 N   0  0
    6.5003    0.7424    0.0000 C   0  0
    3.9026    0.7500    0.0000 C   0  0
    2.8646    1.3521    0.0000 O   0  0
    3.8990   -0.7508    0.0000 N   0  0
    2.5988   -1.5004    0.0000 C   0  0
    1.2990   -0.7500    0.0000 C   0  0
    1.2990    0.7500    0.0000 C   0  0
    0.0000    1.5000    0.0000 C   0  0
   -1.2990    0.7500    0.0000 C   0  0
   -1.2990   -0.7500    0.0000 C   0  0
    0.0000   -1.5000    0.0000 C   0  0
   -2.6003    1.4977    0.0000 C   0  0
   -2.6024    2.6977    0.0000 O   0  0
   -3.8990    0.7455    0.0000 N   0  0
   -5.2003    1.4932    0.0000 C   0  0
   -6.4994    0.7432    0.0000 C   0  0
   -7.7985    1.4932    0.0000 C   0  0
   -7.7985    2.9932    0.0000 C   0  0
   -6.4995    3.7432    0.0000 C   0  0
   -5.2004    2.9933    0.0000 C   0  0
   -3.8992    3.7411    0.0000 N   0  0
    5.1988   -1.5012    0.0000 C   0  0
    5.1997   -3.0021    0.0000 C   0  0
    6.4992   -3.7512    0.0000 C   0  0
    6.5002   -5.2512    0.0000 C   0  0
    5.2016   -6.0021    0.0000 C   0  0
    3.9021   -5.2529    0.0000 C   0  0
    3.9012   -3.7529    0.0000 C   0  0
    5.2026   -7.5028    0.0000 C   0  0
    6.4153   -8.3638    0.0000 C   0  0
    5.9504   -9.7899    0.0000 C   0  0
    4.4504   -9.7885    0.0000 C   0  0
    3.9882   -8.3615    0.0000 S   0  0
    6.0741    3.4975    0.0000 H   0  0
    5.2091    3.9990    0.0000 H   0  0
    4.3422    3.5008    0.0000 H   0  0
    6.4968   -0.2576    0.0000 H   0  0
    7.3682    1.2391    0.0000 H   0  0
    7.3645    0.2393    0.0000 H   0  0
    2.5985   -2.5004    0.0000 H   0  0
    3.4646   -2.0008    0.0000 H   0  0
    2.1651    1.2500    0.0000 H   0  0
    0.0000    2.5000    0.0000 H   0  0
   -2.1651   -1.2500    0.0000 H   0  0
    0.0000   -2.5000    0.0000 H   0  0
   -6.4994   -0.2568    0.0000 H   0  0
   -8.6645    0.9932    0.0000 H   0  0
   -8.6646    3.4932    0.0000 H   0  0
   -6.4995    4.7432    0.0000 H   0  0
    6.0646   -1.0010    0.0000 H   0  0
    5.1986   -0.5012    0.0000 H   0  0
    7.3650   -3.2507    0.0000 H   0  0
    7.3665   -5.7507    0.0000 H   0  0
    3.0364   -5.7534    0.0000 H   0  0
    3.0348   -3.2534    0.0000 H   0  0
    7.3648   -8.0501    0.0000 H   0  0
    6.5374  -10.5995    0.0000 H   0  0
    3.8619  -10.5970    0.0000 H   0  0
   -3.8973   -0.2545    0.0000 H   0  0
   -3.0338    3.2399    0.0000 H   0  0
   -3.8975    4.7411    0.0000 H   0  0
  1  2  1  0
  2  3  1  0
  2  4  1  0
  4  5  2  0
  4  6  1  0
  6  7  1  0
  7  8  1  0
  8  9  2  0
  9 10  1  0
 10 11  2  0
 11 12  1  0
 12 13  2  0
  8 13  1  0
 11 14  1  0
 14 15  2  0
 14 16  1  0
 16 17  1  0
 17 18  2  0
 18 19  1  0
 19 20  2  0
 20 21  1  0
 21 22  2  0
 17 22  1  0
 22 23  1  0
  6 24  1  0
 24 25  1  0
 25 26  2  0
 26 27  1  0
 27 28  2  0
 28 29  1  0
 29 30  2  0
 25 30  1  0
 28 31  1  0
 31 32  2  0
 32 33  1  0
 33 34  2  0
 34 35  1  0
 31 35  1  0
  1 36  1  0
  1 37  1  0
  1 38  1  0
  3 39  1  0
  3 40  1  0
  3 41  1  0
  7 42  1  0
  7 43  1  0
  9 44  1  0
 10 45  1  0
 12 46  1  0
 13 47  1  0
 18 48  1  0
 19 49  1  0
 20 50  1  0
 21 51  1  0
 24 52  1  0
 24 53  1  0
 26 54  1  0
 27 55  1  0
 29 56  1  0
 30 57  1  0
 32 58  1  0
 33 59  1  0
 34 60  1  0
 16 61  1  0
 23 62  1  0
 23 63  1  0
M  END
> <Name>
CHEMBL1165774

> <ALogP>
4.458

> <Molecular_Weight>
484.61252

> <Num_H_Acceptors>
3

> <Num_H_Donors>
2

> <Num_RotatableBonds>
7

> <FormalCharge>
0

$$$$
CHEMBL1165443
  SciTegic01131515592D

 57 60  0  0  0  0            999 V2000
    2.5973   -1.5031    0.0000 N   0  0
    1.2990   -0.7500    0.0000 C   0  0
    1.2990    0.7500    0.0000 C   0  0
    0.0000    1.5000    0.0000 C   0  0
   -1.2990    0.7500    0.0000 C   0  0
   -1.2990   -0.7500    0.0000 C   0  0
    0.0000   -1.5000    0.0000 C   0  0
    0.0031   -3.0008    0.0000 N   0  0
    1.3039   -3.7494    0.0000 C   0  0
    2.3421   -3.1476    0.0000 O   0  0
    1.3070   -5.2502    0.0000 C   0  0
    2.6060   -6.0003    0.0000 C   0  0
    2.6061   -7.5003    0.0000 C   0  0
    1.3071   -8.2503    0.0000 C   0  0
    1.3071   -9.7511    0.0000 C   0  0
    2.6064  -10.5023    0.0000 N   0  3
    2.6064  -12.0032    0.0000 C   0  0
    3.9057  -12.7544    0.0000 C   0  0
    3.9048  -14.2544    0.0000 C   0  0
    5.2034  -15.0052    0.0000 C   0  0
    6.5029  -14.2559    0.0000 C   0  0
    6.5038  -12.7559    0.0000 C   0  0
    5.2052  -12.0052    0.0000 C   0  0
    7.8021  -15.0071    0.0000 C   0  0
    7.8037  -16.5072    0.0000 C   0  0
    9.1035  -17.2559    0.0000 C   0  0
   10.4018  -16.5046    0.0000 C   0  0
   10.4003  -15.0046    0.0000 C   0  0
    9.1005  -14.2559    0.0000 C   0  0
    0.0080   -7.5003    0.0000 C   0  0
    0.0080   -6.0003    0.0000 C   0  0
    2.1651    1.2500    0.0000 H   0  0
    0.0000    2.5000    0.0000 H   0  0
   -2.1651    1.2500    0.0000 H   0  0
   -2.1651   -1.2500    0.0000 H   0  0
    3.4721   -5.5003    0.0000 H   0  0
    3.4721   -8.0003    0.0000 H   0  0
    0.4409  -10.2509    0.0000 H   0  0
    0.4411   -9.2510    0.0000 H   0  0
    1.7403  -12.5029    0.0000 H   0  0
    2.6060  -13.0032    0.0000 H   0  0
    3.0385  -14.7538    0.0000 H   0  0
    5.2028  -16.0052    0.0000 H   0  0
    7.3701  -12.2565    0.0000 H   0  0
    5.2058  -11.0052    0.0000 H   0  0
    6.9382  -17.0080    0.0000 H   0  0
    9.1045  -18.2559    0.0000 H   0  0
   11.2683  -17.0038    0.0000 H   0  0
   11.2658  -14.5038    0.0000 H   0  0
    9.0996  -13.2559    0.0000 H   0  0
   -0.8580   -8.0004    0.0000 H   0  0
   -0.8581   -5.5004    0.0000 H   0  0
    2.5958   -2.5031    0.0000 H   0  0
    3.4642   -1.0046    0.0000 H   0  0
   -0.8621   -3.5023    0.0000 H   0  0
    3.4726  -10.0026    0.0000 H   0  0
    2.6069   -9.5023    0.0000 H   0  0
  1  2  1  0
  2  3  2  0
  3  4  1  0
  4  5  2  0
  5  6  1  0
  6  7  2  0
  2  7  1  0
  7  8  1  0
  8  9  1  0
  9 10  2  0
  9 11  1  0
 11 12  2  0
 12 13  1  0
 13 14  2  0
 14 15  1  0
 15 16  1  0
 16 17  1  0
 17 18  1  0
 18 19  2  0
 19 20  1  0
 20 21  2  0
 21 22  1  0
 22 23  2  0
 18 23  1  0
 21 24  1  0
 24 25  2  0
 25 26  1  0
 26 27  2  0
 27 28  1  0
 28 29  2  0
 24 29  1  0
 14 30  1  0
 30 31  2  0
 11 31  1  0
  3 32  1  0
  4 33  1  0
  5 34  1  0
  6 35  1  0
 12 36  1  0
 13 37  1  0
 15 38  1  0
 15 39  1  0
 17 40  1  0
 17 41  1  0
 19 42  1  0
 20 43  1  0
 22 44  1  0
 23 45  1  0
 25 46  1  0
 26 47  1  0
 27 48  1  0
 28 49  1  0
 29 50  1  0
 30 51  1  0
 31 52  1  0
  1 53  1  0
  1 54  1  0
  8 55  1  0
 16 56  1  0
 16 57  1  0
M  CHG  1  16   1
M  END
> <Name>
CHEMBL1165443

> <ALogP>
3.277

> <Molecular_Weight>
408.51484

> <Num_H_Acceptors>
2

> <Num_H_Donors>
3

> <Num_RotatableBonds>
7

> <FormalCharge>
1

$$$$
CHEMBL571505
  SciTegic01131515592D

 28 30  0  0  0  0            999 V2000
   -9.5540    0.3324    0.0000 F   0  0
   -8.3610    0.4613    0.0000 C   0  0
   -7.6532   -0.5078    0.0000 F   0  0
   -8.8461   -0.6363    0.0000 F   0  0
   -7.7536    1.8337    0.0000 C   0  0
   -8.4614    2.8027    0.0000 O   0  0
   -6.2640    1.9946    0.0000 C   0  0
   -5.5150    3.2942    0.0000 C   0  0
   -4.0476    2.9835    0.0000 C   0  0
   -3.9086    1.5029    0.0000 C   0  0
   -5.2594    0.8807    0.0000 S   0  0
   -2.6111    0.7486    0.0000 C   0  0
   -2.6111   -0.7486    0.0000 C   0  0
   -1.2964   -1.4973    0.0000 C   0  0
    0.0000   -0.7486    0.0000 C   0  0
    1.2964   -1.4973    0.0000 N   0  0
    2.5929   -0.7486    0.0000 C   0  0
    2.5929    0.7486    0.0000 C   0  0
    1.2964    1.4973    0.0000 N   0  0
    0.0000    0.7486    0.0000 C   0  0
   -1.2964    1.4973    0.0000 C   0  0
   -5.9225    4.2074    0.0000 H   0  0
   -3.3010    3.6488    0.0000 H   0  0
   -3.4756   -1.2512    0.0000 H   0  0
   -1.2934   -2.4973    0.0000 H   0  0
    3.4589   -1.2486    0.0000 H   0  0
    3.4589    1.2486    0.0000 H   0  0
   -1.2934    2.4973    0.0000 H   0  0
  1  2  1  0
  2  3  1  0
  2  4  1  0
  2  5  1  0
  5  6  2  0
  5  7  1  0
  7  8  2  0
  8  9  1  0
  9 10  2  0
 10 11  1  0
  7 11  1  0
 10 12  1  0
 12 13  2  0
 13 14  1  0
 14 15  2  0
 15 16  1  0
 16 17  2  0
 17 18  1  0
 18 19  2  0
 19 20  1  0
 15 20  1  0
 20 21  2  0
 12 21  1  0
  8 22  1  0
  9 23  1  0
 13 24  1  0
 14 25  1  0
 17 26  1  0
 18 27  1  0
 21 28  1  0
M  END
> <Name>
CHEMBL571505

> <ALogP>
3.885

> <Molecular_Weight>
308.27838

> <Num_H_Acceptors>
3

> <Num_H_Donors>
0

> <Num_RotatableBonds>
3

> <FormalCharge>
0

$$$$
CHEMBL482287
  SciTegic01131515592D

 40 40  0  0  0  0            999 V2000
    6.4855   -8.2648    0.0000 C   0  0
    5.1873   -7.5117    0.0000 C   0  0
    5.1894   -6.0109    0.0000 S   0  0
    3.8912   -5.2578    0.0000 C   0  0
    2.8509   -5.8560    0.0000 S   0  0
    3.8933   -3.7570    0.0000 S   0  0
    2.5951   -3.0039    0.0000 C   0  0
    2.5973   -1.5031    0.0000 C   0  0
    3.6375   -0.9049    0.0000 O   0  0
    1.2990   -0.7500    0.0000 C   0  0
    1.2990    0.7500    0.0000 C   0  0
    0.0000    1.5000    0.0000 C   0  0
   -1.2990    0.7500    0.0000 C   0  0
   -2.5988    1.5004    0.0000 C   0  0
   -2.5998    3.0012    0.0000 N   0  0
   -1.3018    3.7547    0.0000 C   0  0
   -3.8995    3.7516    0.0000 C   0  0
   -4.9385    3.1513    0.0000 O   0  0
   -3.9005    5.2525    0.0000 C   0  0
   -1.2990   -0.7500    0.0000 C   0  0
    0.0000   -1.5000    0.0000 C   0  0
    6.4840   -9.2648    0.0000 H   0  0
    7.3524   -7.7663    0.0000 H   0  0
    7.3507   -8.7662    0.0000 H   0  0
    4.3204   -8.0102    0.0000 H   0  0
    4.3220   -7.0104    0.0000 H   0  0
    1.7282   -3.5024    0.0000 H   0  0
    2.5932   -4.0039    0.0000 H   0  0
    2.1651    1.2500    0.0000 H   0  0
    0.0000    2.5000    0.0000 H   0  0
   -3.4647    1.0001    0.0000 H   0  0
   -3.4651    2.0000    0.0000 H   0  0
   -1.3035    4.7547    0.0000 H   0  0
   -0.4347    3.2565    0.0000 H   0  0
   -0.4367    4.2564    0.0000 H   0  0
   -4.7665    5.7525    0.0000 H   0  0
   -3.0346    5.7527    0.0000 H   0  0
   -3.9006    6.2525    0.0000 H   0  0
   -2.1651   -1.2500    0.0000 H   0  0
    0.0000   -2.5000    0.0000 H   0  0
  1  2  1  0
  2  3  1  0
  3  4  1  0
  4  5  2  0
  4  6  1  0
  6  7  1  0
  7  8  1  0
  8  9  2  0
  8 10  1  0
 10 11  2  0
 11 12  1  0
 12 13  2  0
 13 14  1  0
 14 15  1  0
 15 16  1  0
 15 17  1  0
 17 18  2  0
 17 19  1  0
 13 20  1  0
 20 21  2  0
 10 21  1  0
  1 22  1  0
  1 23  1  0
  1 24  1  0
  2 25  1  0
  2 26  1  0
  7 27  1  0
  7 28  1  0
 11 29  1  0
 12 30  1  0
 14 31  1  0
 14 32  1  0
 16 33  1  0
 16 34  1  0
 16 35  1  0
 19 36  1  0
 19 37  1  0
 19 38  1  0
 20 39  1  0
 21 40  1  0
M  END
> <Name>
CHEMBL482287

> <ALogP>
3.617

> <Molecular_Weight>
341.51186

> <Num_H_Acceptors>
5

> <Num_H_Donors>
0

> <Num_RotatableBonds>
8

> <FormalCharge>
0

$$$$
CHEMBL504161
  SciTegic01131515592D

 29 31  0  0  0  0            999 V2000
    1.7191   -4.5887    0.0000 F   0  0
    1.0157   -3.6164    0.0000 C   0  0
   -0.1779   -3.7398    0.0000 F   0  0
    0.5255   -4.7117    0.0000 F   0  0
    1.6281   -2.2462    0.0000 C   0  0
    2.8218   -2.1229    0.0000 O   0  0
    0.7500   -1.0323    0.0000 C   0  0
    1.2135    0.3943    0.0000 C   0  0
    0.0000    1.2760    0.0000 C   0  0
   -1.2135    0.3943    0.0000 C   0  0
   -0.7500   -1.0323    0.0000 S   0  0
   -2.6408    0.8580    0.0000 C   0  0
   -3.1909    2.2347    0.0000 O   0  0
   -4.6863    2.1174    0.0000 N   0  0
   -5.0368    0.6589    0.0000 C   0  0
   -6.4211    0.0859    0.0000 C   0  0
   -7.6121    0.9990    0.0000 C   0  0
   -9.0328    0.5591    0.0000 C   0  0
   -9.8829    1.7949    0.0000 C   0  0
   -8.9702    2.9853    0.0000 C   0  0
   -7.5561    2.4852    0.0000 S   0  0
   -3.7580   -0.1251    0.0000 N   0  0
    2.1646    0.7033    0.0000 H   0  0
    0.0000    2.2760    0.0000 H   0  0
   -6.5515   -0.9056    0.0000 H   0  0
   -5.6278   -0.5229    0.0000 H   0  0
   -9.3606   -0.3857    0.0000 H   0  0
  -10.8826    1.8207    0.0000 H   0  0
   -9.2546    3.9440    0.0000 H   0  0
  1  2  1  0
  2  3  1  0
  2  4  1  0
  2  5  1  0
  5  6  2  0
  5  7  1  0
  7  8  2  0
  8  9  1  0
  9 10  2  0
 10 11  1  0
  7 11  1  0
 10 12  1  0
 12 13  1  0
 13 14  1  0
 14 15  2  0
 15 16  1  0
 16 17  1  0
 17 18  2  0
 18 19  1  0
 19 20  2  0
 20 21  1  0
 17 21  1  0
 15 22  1  0
 12 22  2  0
  8 23  1  0
  9 24  1  0
 16 25  1  0
 16 26  1  0
 18 27  1  0
 19 28  1  0
 20 29  1  0
M  END
> <Name>
CHEMBL504161

> <ALogP>
4.206

> <Molecular_Weight>
344.33208

> <Num_H_Acceptors>
3

> <Num_H_Donors>
0

> <Num_RotatableBonds>
5

> <FormalCharge>
0

$$$$
CHEMBL97231
  SciTegic01131515592D

 53 56  0  0  0  0            999 V2000
  -11.6712    0.8095    0.0000 N   0  0
  -12.9787    0.0726    0.0000 C   0  0
  -14.2715    0.8334    0.0000 C   0  0
  -15.5767    0.0943    0.0000 C   0  0
  -15.5893   -1.4056    0.0000 C   0  0
  -14.2965   -2.1665    0.0000 C   0  0
  -12.9912   -1.4274    0.0000 C   0  0
  -11.6962   -2.1861    0.0000 N   0  0
  -10.3913   -1.4447    0.0000 C   0  0
  -10.3833   -0.2447    0.0000 O   0  0
   -9.0963   -2.2033    0.0000 C   0  0
   -7.7914   -1.4620    0.0000 C   0  0
   -6.4964   -2.2206    0.0000 C   0  0
   -5.1914   -1.4793    0.0000 C   0  0
   -3.8965   -2.2379    0.0000 C   0  0
   -2.5914   -1.4965    0.0000 N   0  0
   -2.5914    0.0000    0.0000 C   0  0
   -3.6307    0.6000    0.0000 O   0  0
   -1.2957    0.7482    0.0000 C   0  0
   -1.2957    2.2447    0.0000 C   0  0
    0.0000    3.0112    0.0000 C   0  0
    1.2957    2.2447    0.0000 C   0  0
    1.2957    0.7482    0.0000 C   0  0
    2.5914    0.0000    0.0000 C   0  0
    3.6307    0.6000    0.0000 Br  0  0
    2.5914   -1.4965    0.0000 C   0  0
    1.2957   -2.2629    0.0000 C   0  0
    0.0000   -1.4965    0.0000 C   0  0
   -1.2957   -2.2629    0.0000 C   0  0
   -1.2957   -3.4629    0.0000 O   0  0
    0.0000    0.0000    0.0000 C   0  0
  -14.2631    1.8334    0.0000 H   0  0
  -16.4385    0.6015    0.0000 H   0  0
  -16.4594   -1.8984    0.0000 H   0  0
  -14.3049   -3.1664    0.0000 H   0  0
   -9.9656   -2.6977    0.0000 H   0  0
   -9.1030   -3.2033    0.0000 H   0  0
   -8.6540   -0.9561    0.0000 H   0  0
   -7.7847   -0.4620    0.0000 H   0  0
   -7.3656   -2.7150    0.0000 H   0  0
   -6.5030   -3.2206    0.0000 H   0  0
   -6.0540   -0.9734    0.0000 H   0  0
   -5.1848   -0.4793    0.0000 H   0  0
   -3.0339   -2.7438    0.0000 H   0  0
   -3.9031   -3.2379    0.0000 H   0  0
   -2.1644    2.7401    0.0000 H   0  0
    0.0000    4.0112    0.0000 H   0  0
    2.1644    2.7401    0.0000 H   0  0
    3.4601   -1.9919    0.0000 H   0  0
    1.2957   -3.2629    0.0000 H   0  0
  -10.8101    0.3010    0.0000 H   0  0
  -11.6612    1.8094    0.0000 H   0  0
  -11.7029   -3.1860    0.0000 H   0  0
  1  2  1  0
  2  3  2  0
  3  4  1  0
  4  5  2  0
  5  6  1  0
  6  7  2  0
  2  7  1  0
  7  8  1  0
  8  9  1  0
  9 10  2  0
  9 11  1  0
 11 12  1  0
 12 13  1  0
 13 14  1  0
 14 15  1  0
 15 16  1  0
 16 17  1  0
 17 18  2  0
 17 19  1  0
 19 20  2  0
 20 21  1  0
 21 22  2  0
 22 23  1  0
 23 24  2  0
 24 25  1  0
 24 26  1  0
 26 27  2  0
 27 28  1  0
 28 29  1  0
 16 29  1  0
 29 30  2  0
 28 31  2  0
 19 31  1  0
 23 31  1  0
  3 32  1  0
  4 33  1  0
  5 34  1  0
  6 35  1  0
 11 36  1  0
 11 37  1  0
 12 38  1  0
 12 39  1  0
 13 40  1  0
 13 41  1  0
 14 42  1  0
 14 43  1  0
 15 44  1  0
 15 45  1  0
 20 46  1  0
 21 47  1  0
 22 48  1  0
 26 49  1  0
 27 50  1  0
  1 51  1  0
  1 52  1  0
  8 53  1  0
M  END
> <Name>
CHEMBL97231

> <ALogP>
3.89

> <Molecular_Weight>
480.35378

> <Num_H_Acceptors>
4

> <Num_H_Donors>
2

> <Num_RotatableBonds>
7

> <FormalCharge>
0

$$$$
CHEMBL402382
  SciTegic01131515592D

 42 44  0  0  0  0            999 V2000
    2.9214   -6.2284    0.0000 C   0  0
    4.0404   -5.2322    0.0000 N   0  0
    5.5083   -5.5410    0.0000 C   0  0
    6.2556   -4.2405    0.0000 C   0  0
    5.2496   -3.1278    0.0000 N   0  0
    3.8995   -3.7516    0.0000 C   0  0
    2.5997   -3.0012    0.0000 S   0  0
    2.5988   -1.5004    0.0000 C   0  0
    1.2990   -0.7500    0.0000 C   0  0
    1.2990    0.7500    0.0000 C   0  0
    0.0000    1.5000    0.0000 C   0  0
   -1.2990    0.7500    0.0000 C   0  0
   -1.2990   -0.7500    0.0000 C   0  0
    0.0000   -1.5000    0.0000 C   0  0
   -2.6003    1.4977    0.0000 C   0  0
   -2.6024    2.6977    0.0000 O   0  0
   -3.8990    0.7455    0.0000 N   0  0
   -5.2003    1.4932    0.0000 C   0  0
   -6.4994    0.7432    0.0000 C   0  0
   -7.7985    1.4932    0.0000 C   0  0
   -7.7985    2.9932    0.0000 C   0  0
   -6.4995    3.7432    0.0000 C   0  0
   -5.2004    2.9933    0.0000 C   0  0
   -3.8992    3.7411    0.0000 N   0  0
    3.1232   -7.2078    0.0000 H   0  0
    1.9723   -5.9137    0.0000 H   0  0
    2.1742   -6.8930    0.0000 H   0  0
    5.9169   -6.4538    0.0000 H   0  0
    7.2499   -4.1339    0.0000 H   0  0
    3.4647   -1.0001    0.0000 H   0  0
    3.4651   -2.0000    0.0000 H   0  0
    2.1651    1.2500    0.0000 H   0  0
    0.0000    2.5000    0.0000 H   0  0
   -2.1651   -1.2500    0.0000 H   0  0
    0.0000   -2.5000    0.0000 H   0  0
   -6.4994   -0.2568    0.0000 H   0  0
   -8.6645    0.9932    0.0000 H   0  0
   -8.6646    3.4932    0.0000 H   0  0
   -6.4995    4.7432    0.0000 H   0  0
   -3.8973   -0.2545    0.0000 H   0  0
   -3.0338    3.2399    0.0000 H   0  0
   -3.8975    4.7411    0.0000 H   0  0
  1  2  1  0
  2  3  1  0
  3  4  2  0
  4  5  1  0
  5  6  2  0
  2  6  1  0
  6  7  1  0
  7  8  1  0
  8  9  1  0
  9 10  2  0
 10 11  1  0
 11 12  2  0
 12 13  1  0
 13 14  2  0
  9 14  1  0
 12 15  1  0
 15 16  2  0
 15 17  1  0
 17 18  1  0
 18 19  2  0
 19 20  1  0
 20 21  2  0
 21 22  1  0
 22 23  2  0
 18 23  1  0
 23 24  1  0
  1 25  1  0
  1 26  1  0
  1 27  1  0
  3 28  1  0
  4 29  1  0
  8 30  1  0
  8 31  1  0
 10 32  1  0
 11 33  1  0
 13 34  1  0
 14 35  1  0
 19 36  1  0
 20 37  1  0
 21 38  1  0
 22 39  1  0
 17 40  1  0
 24 41  1  0
 24 42  1  0
M  END
> <Name>
CHEMBL402382

> <ALogP>
2.628

> <Molecular_Weight>
338.42672

> <Num_H_Acceptors>
4

> <Num_H_Donors>
2

> <Num_RotatableBonds>
5

> <FormalCharge>
0

$$$$
CHEMBL270097
  SciTegic01131515592D

 56 59  0  0  0  0            999 V2000
    1.4931  -17.0734    0.0000 N   0  0
    2.9624  -17.3794    0.0000 C   0  0
    3.4346  -18.8032    0.0000 C   0  0
    4.9037  -19.1061    0.0000 C   0  0
    5.9006  -17.9853    0.0000 C   0  0
    5.4284  -16.5616    0.0000 C   0  0
    3.9593  -16.2586    0.0000 C   0  0
    3.4839  -14.8350    0.0000 N   0  0
    2.0136  -14.5339    0.0000 C   0  0
    1.2176  -15.4319    0.0000 O   0  0
    1.5383  -13.1104    0.0000 C   0  0
    0.0692  -12.8074    0.0000 C   0  0
   -0.4030  -11.3836    0.0000 C   0  0
    0.5939  -10.2628    0.0000 C   0  0
    0.1244   -8.8373    0.0000 C   0  0
    1.1235   -7.7173    0.0000 C   0  0
    0.6540   -6.2918    0.0000 C   0  0
   -0.5209   -6.0474    0.0000 O   0  0
    1.6530   -5.1718    0.0000 N   0  0
    1.1835   -3.7463    0.0000 C   0  0
    2.1825   -2.6263    0.0000 C   0  0
    1.7138   -1.2033    0.0000 C   0  0
    2.5889    0.0182    0.0000 C   0  0
    1.7138    1.2033    0.0000 N   0  0
    0.2917    0.7475    0.0000 C   0  0
   -1.0028    1.5132    0.0000 C   0  0
   -2.3155    0.7475    0.0000 C   0  0
   -2.3155   -0.7475    0.0000 C   0  0
   -1.0028   -1.5132    0.0000 C   0  0
    0.2917   -0.7475    0.0000 C   0  0
    2.0631  -10.5658    0.0000 C   0  0
    2.5352  -11.9896    0.0000 C   0  0
    2.7700  -19.5504    0.0000 H   0  0
    5.2185  -20.0553    0.0000 H   0  0
    6.8800  -18.1873    0.0000 H   0  0
    6.0930  -15.8144    0.0000 H   0  0
   -0.5954  -13.5546    0.0000 H   0  0
   -1.3824  -11.1817    0.0000 H   0  0
   -0.8546   -8.6336    0.0000 H   0  0
    2.1025   -7.9210    0.0000 H   0  0
    0.5175   -4.4922    0.0000 H   0  0
    0.2045   -3.5426    0.0000 H   0  0
    2.8486   -1.8804    0.0000 H   0  0
    3.1616   -2.8300    0.0000 H   0  0
    3.5889    0.0254    0.0000 H   0  0
   -0.9997    2.5132    0.0000 H   0  0
   -3.1826    1.2456    0.0000 H   0  0
   -3.1826   -1.2456    0.0000 H   0  0
   -0.9997   -2.5132    0.0000 H   0  0
    2.7277   -9.8187    0.0000 H   0  0
    3.5146  -12.1916    0.0000 H   0  0
    1.1796  -16.1238    0.0000 H   0  0
    0.8272  -17.8194    0.0000 H   0  0
    4.1473  -14.0867    0.0000 H   0  0
    2.6320   -5.3755    0.0000 H   0  0
    2.0210    2.1549    0.0000 H   0  0
  1  2  1  0
  2  3  2  0
  3  4  1  0
  4  5  2  0
  5  6  1  0
  6  7  2  0
  2  7  1  0
  7  8  1  0
  8  9  1  0
  9 10  2  0
  9 11  1  0
 11 12  2  0
 12 13  1  0
 13 14  2  0
 14 15  1  0
 15 16  2  0
 16 17  1  0
 17 18  2  0
 17 19  1  0
 19 20  1  0
 20 21  1  0
 21 22  1  0
 22 23  2  0
 23 24  1  0
 24 25  1  0
 25 26  2  0
 26 27  1  0
 27 28  2  0
 28 29  1  0
 29 30  2  0
 22 30  1  0
 25 30  1  0
 14 31  1  0
 31 32  2  0
 11 32  1  0
  3 33  1  0
  4 34  1  0
  5 35  1  0
  6 36  1  0
 12 37  1  0
 13 38  1  0
 15 39  1  0
 16 40  1  0
 20 41  1  0
 20 42  1  0
 21 43  1  0
 21 44  1  0
 23 45  1  0
 26 46  1  0
 27 47  1  0
 28 48  1  0
 29 49  1  0
 31 50  1  0
 32 51  1  0
  1 52  1  0
  1 53  1  0
  8 54  1  0
 19 55  1  0
 24 56  1  0
M  STY  1   1 DAT
M  SAL   1  1  24
M  SDT   1 MRV_IMPLICIT_H
M  SDD   1     0.0000    0.0000    DR    ALL  0       0
M  SED   1 IMPL_H1
M  END
> <Name>
CHEMBL270097

> <ALogP>
3.742

> <Molecular_Weight>
424.49436

> <Num_H_Acceptors>
3

> <Num_H_Donors>
4

> <Num_RotatableBonds>
7

> <FormalCharge>
0

$$$$
